<?xml version="1.0" encoding="UTF-8"?>

<!-- generated on 2025-03-17 09:36:50 by Eclipse SUMO duarouter Version 1.22.0
<duarouterConfiguration xmlns:xsi="http://www.w3.org/2001/XMLSchema-instance" xsi:noNamespaceSchemaLocation="http://sumo.dlr.de/xsd/duarouterConfiguration.xsd">

    <input>
        <net-file value="C:\Users\FADEL\Desktop\sumo-win64-1.8.0\sumo-1.8.0\tools\2025-03-17-09-36-45\osm.net.xml"/>
        <route-files value="C:\Users\FADEL\Desktop\sumo-win64-1.8.0\sumo-1.8.0\tools\2025-03-17-09-36-45\osm.passenger.trips.xml"/>
    </input>

    <output>
        <output-file value="routes.rou.xml"/>
    </output>

    <time>
        <begin value="0"/>
        <end value="3600"/>
    </time>

    <report>
        <no-warnings value="true"/>
        <ignore-errors value="true"/>
        <no-step-log value="true"/>
    </report>

</duarouterConfiguration>
-->

<routes xmlns:xsi="http://www.w3.org/2001/XMLSchema-instance" xsi:noNamespaceSchemaLocation="http://sumo.dlr.de/xsd/routes_file.xsd">
    <vType id="veh_passenger" vClass="passenger"/>
    <vehicle id="veh0" type="veh_passenger" depart="0.00" departLane="best" departSpeed="max">
        <route edges="176504327 -176504368#3 -176504368#2 -176504368#1 -176504368#0 -176254067#15 -176254067#14 -176254067#13 -176254067#12 -176254067#11 -176254067#10 -176254067#9 -176254067#8 -176254067#7 -176254067#6"/>
    </vehicle>
    <vehicle id="veh1" type="veh_passenger" depart="2.73" departLane="best">
        <route edges="176719422#5 176719517#1 -176719442#1 -176719442#0 250475139#5 250475139#6 250475139#7 250475139#8 250475139#9 -176726992#8 -176726992#7 -176726992#6 -176726992#5 -176726992#3 -176726992#2 -176726992#1 -176726992#0 -176254074#4 -176254074#3 -176254074#2 -176254074#1 -176254074#0 -176334985#7 -176334985#6 -176334985#5 -176334985#4 176254067#2 176254067#3 176254067#4 176254067#5 176254067#6 176254067#7 176254067#8 176254067#9 176254067#10 176254067#11 176254067#12 176254067#13 176254067#14 176254067#15 176254067#16 176504324 -240273032 -176334984#0 252218712 176254072#2 176254072#3 176254058 -176254044#4 -176254044#3 176504348#4"/>
    </vehicle>
    <vehicle id="veh2" type="veh_passenger" depart="5.46" departLane="best">
        <route edges="176892539#2 176892641#2 539408154#4 539408154#5 539408154#7 539408154#8 539408154#9 176259841#0 176259841#1 -176254074#4 -176254074#3 -176254074#2 -176254074#1 -176254074#0 -176334985#7 -176334985#6 -176334985#5 -176334985#4 -176334985#1 -176334985#0 -176334991 -176334989#4 -176334989#3 176498852#0 176498852#1 176498852#2 176498847#4 176498861#0 176498861#1 240273631#0 240273631#1 240273631#2 -176494274#2"/>
    </vehicle>
    <vehicle id="veh3" type="veh_passenger" depart="8.20" departLane="best">
        <route edges="-250475139#8 250475139#8 250475139#9 -176726992#8 -176726992#7 -176726992#6 -176726992#5 -176726992#3 -176726992#2 -176726992#1 -176726992#0 -176254074#4 -176254074#3 -176254074#2 -176254074#1"/>
    </vehicle>
    <vehicle id="veh4" type="veh_passenger" depart="10.93" departLane="best">
        <route edges="-176719403#0 176719500#0 176719508 -176719436#14 -176719436#13 -176719436#12 -176719436#11 -176719436#9 -176719436#7 -176719436#6 -176719436#5 -176719436#4 -176719436#3 -176719436#2 -176719436#1 -176719436#0 -176230347#3 728288076 728288073 176230347#2 176230347#3"/>
    </vehicle>
    <vehicle id="veh5" type="veh_passenger" depart="13.66" departLane="best">
        <route edges="-176254067#3 -176254067#2 -176334985#1 -176334985#0 -176334991 -176334989#4 -176334989#3 -176334989#2 -176334989#1 -176714635#3 -176714635#2 -176714635#1 -176714635#0"/>
    </vehicle>
    <vehicle id="veh6" type="veh_passenger" depart="16.39" departLane="best" departSpeed="max">
        <route edges="-176719403#3 176719457#7 176719457#8 -176259823#0 -176259832#2 -176259832#1 -176259832#0 -176230338#5 -176230338#4 -176230338#2 -176230338#1 733496502 -176334985#0 -176334991 -176334989#4 -176334989#3 176498852#0 176498852#1 176498852#2 176498847#4 176498861#0 176498861#1 240273631#0 240273631#1 240273631#2 176494274#3 176494256#0 176494256#1 176494256#2 176494256#3 -240272964#0 176494267#0 176494262#2"/>
    </vehicle>
    <vehicle id="veh7" type="veh_passenger" depart="19.12" departLane="best">
        <route edges="176726992#2 176726992#3 -176259825 -176259848#1 -176259848#0 252219056 176259824#3 176259824#4 176259824#5 255346564 -176259823#10 -176259823#9 -176259823#8 -176259823#7 -176259823#6 -176259823#5 -176259823#4 -176719436#16 -176719436#14 -176719436#13 -176719436#12 -176719436#11 -176719436#9 -176719436#7 -176719436#6 -176719436#5 -176719436#4 -176719436#3 -176719436#2 -176719436#1 -176719436#0 -176230347#3 -176230347#2 -176230347#0"/>
    </vehicle>
    <vehicle id="veh8" type="veh_passenger" depart="21.85" departLane="best">
        <route edges="176719518#6 176719463#5 176719463#7 176719463#9 176719463#10 176719436#13 176719436#14 176719436#16 -176259823#2 -176259823#1 -176259823#0 -176259832#2 -176259832#1 -176259832#0 -176230338#5 -176230338#4 -176230338#2 -176230338#1 733496502 -176334985#0 -176334991 -176334989#4 -176334989#3 -176334989#2 -176334989#1 -176714635#3 -176714635#2 176714623#3"/>
    </vehicle>
    <vehicle id="veh9" type="veh_passenger" depart="24.59" departLane="best">
        <route edges="-176887833 -176887832#7 -176887832#6 -176887832#5 -176887832#4 -176887844#1 -176887844#0 176254067#8 176254067#9 176254067#10 176254067#11 176254067#12 176254067#13 176254067#14 176254067#15 176254067#16 176504324 -240273032 -176334984#0 252218712 176254072#2 176254072#3 176254058 -176254044#4 -176254044#3 -176254044#2 -176254044#1 -176504325#0"/>
    </vehicle>
    <vehicle id="veh10" type="veh_passenger" depart="27.32" departLane="best">
        <route edges="250475139#5 250475139#6 250475139#7 250475139#8 250475139#9 -176726992#8 -176726992#7 -176726992#6 -176726992#5 -176726992#3 -176726992#2 -176726996#1 -176726996#0"/>
    </vehicle>
    <vehicle id="veh11" type="veh_passenger" depart="30.05" departLane="best">
        <route edges="-176494279#2 -176494256#0 176494274#4 176494274#6 176494270#0 176494270#1 240272963#0 240272963#1 240272965#0 -176494283#1 -176494283#0"/>
    </vehicle>
    <vehicle id="veh12" type="veh_passenger" depart="32.78" departLane="best">
        <route edges="176728169#3 176728183 -176727017#2 -176727017#1 -176727017#0 -176726992#8 -176726992#7 -176726992#6 -176726992#5 -176726992#3 -176726992#2 -176726992#1 -176726992#0 -176254074#4 -176254074#3 -176254074#2 -176254074#1 -176254074#0 -176334985#7 -176334985#6 -176334985#5 -176334985#4 -176334985#1 -176334985#0 -176334991 -176334989#4 -176334989#3 176498852#0 176498852#1 176498852#2 176498847#4 176498861#0 176498861#1 240273631#0 240273631#1 240273631#2 -176494274#2 -176494274#1 -176494274#0 176494277"/>
    </vehicle>
    <vehicle id="veh13" type="veh_passenger" depart="35.51" departLane="best">
        <route edges="176726991#1 -250475139#8 -250475139#7 176259817#0 176259817#1 176259817#2 176259817#3 176259817#4 176259822 176259824#5 255346564 -176259823#10 -176259823#9 -176259823#8 -176259823#7 -176259823#6 -176259823#5 -176259823#4 -176259823#2 -176259823#1 -176719457#8 176719376#0"/>
    </vehicle>
    <vehicle id="veh14" type="veh_passenger" depart="38.24" departLane="best">
        <route edges="176494256#1 -176494256#1 -176494256#0 -176498831#3 -176498835#4 -176498835#3 -176498835#2 -176498835#1 -176498835#0 -176498852#2 -176498852#1 -176498852#0 176334989#3 176334989#4 176334991 176334985#0 176334985#1 176334985#4 176334985#5 176334985#6 176334985#7 176254053 176254074#1 176254074#2 176259834 436403541 -539408154#9 -539408154#8 -539408154#7 539408154#7"/>
    </vehicle>
    <vehicle id="veh15" type="veh_passenger" depart="40.98" departLane="best">
        <route edges="176727005#2 -250475139#10 -176726992#8 -176726992#7 -176726992#6 -176726992#5 -176726992#3 -176726992#2 -176726992#1 -176726992#0 -176254074#4 -176254074#3 -176254074#2 -176254074#1 -176254074#0 -176334985#7 -176334985#6 -176334985#5 -176334985#4 -176334985#1 -176334985#0 -176334991 -176334989#4 -176334989#3 176498852#0 176498852#1 176498852#2 176498847#4 176498861#0 176498861#1 240273631#0 240273631#1 240273631#2 -176494274#2 -176494274#1 176494284#0 176494284#1"/>
    </vehicle>
    <vehicle id="veh16" type="veh_passenger" depart="43.71" departLane="best" departSpeed="max">
        <route edges="176733527#0 176733527#1 176733527#2 -176728169#0 -250475139#10 -176726992#8 -176726992#7 -176726992#6 -176726992#5 -176726992#3 -176726992#2 -176726992#1 -176726992#0 -176254074#4 -176254074#3 -176254074#2 -176254074#1 -176254074#0 -176334985#7 176334985#7"/>
    </vehicle>
    <vehicle id="veh17" type="veh_passenger" depart="46.44" departLane="best">
        <route edges="176719369#2 176719369#3 -176259823#4 -176259823#2 -176259823#1 -176259823#0 -176259832#2"/>
    </vehicle>
    <vehicle id="veh18" type="veh_passenger" depart="49.17" departLane="best">
        <route edges="-176494270#1 -176494270#0 -176498832#9 176498840#1 -176498843#0 176498858#0 176498858#1 176498858#2 176498858#3 176498846#0 176498846#1 176498846#3 -176254067#6 -176254067#5 -176254067#4 -176254067#3 -176254067#2 176230344 176230338#1 176230338#2 176230338#4 176230338#5 176230338#6 176230338#7 176230338#9 176230338#10 176230338#13 -176230347#4 176719436#0 176719436#1 176719436#2 176719436#3 176719436#4 176719436#5 176719436#6 176719436#7 176719445#0 176719445#1 176719445#2 176719445#3 176719445#4 176719445#5 176719445#6 176719445#7 -176719384#5"/>
    </vehicle>
    <vehicle id="veh19" type="veh_passenger" depart="51.90" departLane="best">
        <route edges="-176494283#5 176494258#1 -176494256#3 -176494256#2 -176494256#1 -176494256#0 -176498831#3 -176498835#4 -176498835#3 -176498835#2 -176498835#1 -176498835#0 -176498852#2 -176498852#1 -176498852#0 176334989#3 176334989#4 176334991 176334985#0 -733496502 176230338#1 176230338#2 176230338#4 176230338#5 176230338#6 176230338#7 176230338#9 176230338#10 176230338#13 -176230347#4 176719436#0 176719436#1 176719436#2 176719436#3 176719436#4 176719436#5 176719436#6 -176719451#3"/>
    </vehicle>
    <vehicle id="veh20" type="veh_passenger" depart="54.63" departLane="best" departSpeed="max">
        <route edges="176504325#0 -176254044#0 258027993#2 176257712#7 176257712#8 176257712#9 176257712#10 255337383 -240272960#8 -240272960#7 -258028298#2 -258028298#1 -258028298#0 -730948890#1 -176494272#1 -176494272#0 -176498850#0 -176498830 176887845#0 -176254067#11 -176254067#10 -176254067#9 -176254067#8 -176254067#7 -176254067#6 -176254067#5 -176254067#4 -176254067#3 -176254067#2 176334985#4 176334985#5 176334985#6 176334985#7 176254053 176254074#1 176254074#2 176259834 436403541 -539408154#9 -539408154#8 -539408154#7 -539408154#5 -539408154#4 -539408154#3 -539408154#2 -539408154#1 -176728169#4"/>
    </vehicle>
    <vehicle id="veh21" type="veh_passenger" depart="57.37" departLane="best">
        <route edges="-176892578#1 -176892562#0 -176892661#2 176892565#0 176892565#1 176892565#2 176259828#1 176259828#2 258027991#0 176257712#10 255337383 -240272960#8 -240272960#7 -258028298#2 -258028298#1 -258028298#0 -730948890#1 -176494272#1 -176494272#0 -176498850#0 -176498830 176887845#0 -176254067#11 -176254067#10 -176254067#9 -176254067#8 -176254067#7 -176254067#6 -176254067#5 -176254067#4 -176254067#3 -176254067#2 -176334985#1 -176334985#0 -176334991 -176334989#4 -176334989#3 -176334989#2 -176334989#1 -176714635#3 -176714635#2 -176714635#1 -176714635#0 -176714650#0"/>
    </vehicle>
    <vehicle id="veh22" type="veh_passenger" depart="60.10" departLane="best">
        <route edges="-176719485#1 -731226942#0 -176719436#3 -176719436#2 -176719436#1 -176719436#0 176230347#4 -176230338#13 -176230338#10 -176230338#9 -176230338#7 -176230338#6 -176230338#5 -176230338#4 -176230338#2 -176230338#1 -176230344 176254067#2 176254067#3 176254067#4 176254067#5 176254067#6 176254067#7 176254067#8 176254067#9 176254067#10 176254067#11 176254067#12 176254067#13 176254067#14 176254067#15 176254067#16 176504324 -240273032 -176334984#0 252218712 176254072#2 176254072#3 176254058 -176254044#4 -176254044#3 -176254044#2 -176254044#1 -176254044#0 258027993#2 176257712#7 176257712#8 255337382 -176334983 -176259828#1 -176259828#0 176259820#0 176259820#1 176259820#2 176906421"/>
    </vehicle>
    <vehicle id="veh23" type="veh_passenger" depart="62.83" departLane="best">
        <route edges="176504368#1 -176504368#1 -176504368#0 -176254067#15 -176254067#14 -176254067#13 -176254067#12 -176887845#0 176498830 176498850#0 176494272#0 176494272#1 730948890#1 -730948894 -730948893#2 -730948893#1 -730948893#0 -176494274#6 -176494274#4 176494256#0 176494279#2"/>
    </vehicle>
    <vehicle id="veh24" type="veh_passenger" depart="65.56" departLane="best">
        <route edges="-176714623#1 176714642#0 176714642#1 176334989#2 176334989#3 176334989#4 176334991 176334985#0 -733496502 176230338#1 176230338#2 176230338#4 176230338#5 176230338#6 176230338#7 176230338#9 176230338#10 176230338#13 -176230347#4 176719436#0 176719436#1 176719436#2 176719436#3 176719436#4 176719436#5 176719436#6 176719436#7 176719436#9 176719374#0 176719374#1 176719374#2"/>
    </vehicle>
    <vehicle id="veh25" type="veh_passenger" depart="68.29" departLane="best">
        <route edges="-176714617#1 -176714617#0 176714645#1 176334985#5 176334985#6 176334985#7 176254053 176254074#1 176254074#2 176254074#3 176254074#4 176726992#0 176726992#1 176726992#2 176726992#3 176726992#5 176726992#6 176726992#7 176726992#8 250475139#10 176728169#0 -176733527#2 -176733527#1 -176733527#0"/>
    </vehicle>
    <vehicle id="veh26" type="veh_passenger" depart="71.02" departLane="best">
        <route edges="731232669 -176719475#6 -176719475#5 -176719445#5 -176719445#4 -176719445#3 -176719445#2 -176719445#1 -176719445#0 -176719436#7 -176719436#6 -176719436#5 -176719436#4 -176719436#3 -176719436#2 -176719436#1 -176719436#0 176230347#4 -176230338#13 -176230338#10 -176230338#9 -176230338#7 -176230338#6 -176230338#5 -176230338#4 -176230338#2 -176230338#1 -176230344 176254067#2 176254067#3 176254067#4 176254067#5 176254067#6 -176498853 -176498846#1 -176498846#0 -176498858#3 -176498862#4 -176498862#3 -176498832#3 176498845#5"/>
    </vehicle>
    <vehicle id="veh27" type="veh_passenger" depart="73.76" departLane="best">
        <route edges="176494273#1 -176494273#1 -176494273#0 -176494276 -258028298#1 -258028298#0 -730948890#1 -176494272#1 -176494272#0 -176498850#0 -176498830 176887845#0 -176254067#11 -176254067#10 -176254067#9 -176254067#8 -176254067#7 -176254067#6 -176254067#5 -176254067#4 -176254067#3 -176254067#2 176230344 176230338#1 176230338#2 176230338#4 176230338#5 176230338#6 176230338#7 176230338#9 176714604#1"/>
    </vehicle>
    <vehicle id="veh28" type="veh_passenger" depart="76.49" departLane="best">
        <route edges="-176719422#0 176719422#0 176719422#1 176719422#3 176719422#4 176719422#5 176719517#1 -176719442#1 -176719442#0 250475139#5 250475139#6 250475139#7 250475139#8 250475139#9 -176726992#8 -176726992#7 -176726992#6 -176726992#5 -176726992#3 -176726992#2 -176726992#1 -176726992#0 -176254074#4"/>
    </vehicle>
    <vehicle id="veh29" type="veh_passenger" depart="79.22" departLane="best">
        <route edges="-176727017#0 -250475139#9 -250475139#8 -250475139#7 -250475139#6 -250475139#5 176719442#0 176719442#1 176719442#3 176719442#4 176719442#6 -176719442#6"/>
    </vehicle>
    <vehicle id="veh30" type="veh_passenger" depart="81.95" departLane="best">
        <route edges="-176719394#0 176719378#0 176719378#1 176259817#4 176259822 176259824#5 176259824#6 176259824#1 252219055 176259848#0 176259848#1 176259848#2 -176726992#3 -176726992#2 -176726992#1 -176726992#0 -176254074#4 -176254074#3 -176254074#2 -176254074#1 -176254074#0 -176334985#7 -176334985#6 -176334985#5 -176334985#4 -176334985#1 -176334985#0 -176334991 -176334989#4 -176334989#3 176498852#0 176498852#1 176498852#2 176498847#4 176498861#0 176498861#1 240273631#0 240273631#1 240273631#2 176494274#3 176494274#4 176494274#6 176494270#0 176494270#1 240272963#0 240272963#1 240272965#0 176494283#2 176494285#4 240272960#2"/>
    </vehicle>
    <vehicle id="veh31" type="veh_passenger" depart="84.68" departLane="best" departSpeed="max">
        <route edges="176887840#0 176887840#1 -176254067#8 -176254067#7 -176254067#6 -176254067#5 -176254067#4 -176254067#3 -176254067#2 176230344 176230338#1 176230338#2 176230338#4 176230338#5 176259832#0 176259832#1 176259832#2 176259823#0 176259823#1 176259823#2 176259823#4 176259823#5 176259823#6 176259823#7 176259823#8 176259823#9 -176719506#7 -176719506#6 -176719506#5 -176719506#4 -176719506#3 -176719506#2 -176719506#1"/>
    </vehicle>
    <vehicle id="veh32" type="veh_passenger" depart="87.41" departLane="best">
        <route edges="176714612#0 176714612#1 176714603 176714617#2 176714617#3 -176714606 -176230338#2 -176230338#1 -176230344 176254067#2 176254067#3 176254067#4 176254067#5 176254067#6 176254067#7 176254067#8 -176887840#1"/>
    </vehicle>
    <vehicle id="veh33" type="veh_passenger" depart="90.15" departLane="best">
        <route edges="176892594#5 -176254074#0 -176334985#7 -176334985#6 -176334985#5 -176334985#4 176254067#2 176254067#3 176254067#4 176254067#5 176254067#6 176254067#7 176254067#8 176254067#9 176254067#10 176254067#11 -176887845#0 176498830 176498850#0 176494272#0 176494272#1 730948890#1 258028298#0 258028298#1 258028298#2 -240272960#6 -240272960#4 -240272960#3"/>
    </vehicle>
    <vehicle id="veh34" type="veh_passenger" depart="92.88" departLane="best">
        <route edges="176494276 176494273#0 -176494273#0 -176494276 -258028298#1 -258028298#0 -730948890#1 -176494272#1 -176494272#0 -176498850#0 -176498830 176887845#0 -176254067#11 -176254067#10 -176254067#9 -176254067#8 -176254067#7 -176254067#6 -176254067#5 -176254067#4 -176254067#3 -176254067#2 176230344 176230338#1 176230338#2 176230338#4 176230338#5 176230338#6 176230338#7 176230338#9 176230338#10 176230338#13 -176230347#4 176719436#0 176719436#1 176719436#2 -176719436#2"/>
    </vehicle>
    <vehicle id="veh35" type="veh_passenger" depart="95.61" departLane="best">
        <route edges="176498832#5 176498832#6 176498832#8 176498832#9 176494270#0 176494270#1 240272963#0 240272963#1 240272965#0 240272965#1 240272960#3 240272960#4 240272960#6 240272960#7 240272960#8 258027992#0 176257712#12 176257712#0 176257712#1 176257712#2 176257712#3 176257712#4 176257712#5 176257712#6 176257712#7 176257712#8 255337382 -176334983 -176892610#1 -176892610#0 176892643 176892570#0"/>
    </vehicle>
    <vehicle id="veh36" type="veh_passenger" depart="98.34" departLane="best" departSpeed="max">
        <route edges="-176906400 -176259820#6 -176259820#5 -176259820#4 -176259820#3 -176259820#2 -176259820#1 -176259820#0 176259828#0 176259828#1 176259828#2 258027991#0 176257712#10 255337383 -240272960#8 -240272960#7 -258028298#2 -258028298#1 -258028298#0 -730948890#1 -176494272#1 -176494272#0 -176498850#0 -176498830 176887845#0 -176254067#11 -176254067#10 -176254067#9 -176254067#8 -176254067#7 -176254067#6 -176254067#5 -176254067#4 -176254067#3 -176254067#2 -176334985#1 -176334985#0 -176334991 -176334989#4 -176334989#3 -176334989#2 -176714642#1 -176714642#0 -176714623#0 -176714666#0"/>
    </vehicle>
    <vehicle id="veh37" type="veh_passenger" depart="101.07" departLane="best" departSpeed="max">
        <route edges="815981478 176259840#1 -176259823#2 -176259823#1 -176259823#0 -176259832#2 -176259832#1 -176259832#0 176254043#0 176254043#1 176254043#2 176254043#3 176254043#4 176254043#5"/>
    </vehicle>
    <vehicle id="veh38" type="veh_passenger" depart="103.80" departLane="best">
        <route edges="-176494278#3 -176494269#1 -176494269#0 -176498863#1 -176498863#0 176498831#2 -176498835#4 -176498835#3 -176498835#2 -176498835#1 -176498835#0 -176498852#2 -176498852#1 -176498852#0 176334989#3 176334989#4 176334991 176334985#0 -733496502 176230338#1 176230338#2 176230338#4 176230338#5 176259832#0 176259832#1 176259832#2 176259823#0 176259823#1 176259823#2 -176259840#1"/>
    </vehicle>
    <vehicle id="veh39" type="veh_passenger" depart="106.54" departLane="best">
        <route edges="176719502#1 176719502#2 176719502#3 176719502#4 176259823#9 176259823#10 252219057 176259824#1 252219055 176259848#0 176259848#1 176259848#2 -176726992#3 -176726992#2 -176726992#1 -176726992#0 -176254074#4 -176254074#3 -176254074#2 -176254074#1 -176892594#5 -176892594#4 -176892581#2 -176892581#1 -176892581#0"/>
    </vehicle>
    <vehicle id="veh40" type="veh_passenger" depart="109.27" departLane="best">
        <route edges="-176334989#3 176334989#3 176334989#4 176334991 176334985#0 176334985#1 176334985#4 176334985#5 176334985#6 176334985#7 176254053 176254074#1 176254074#2 176254074#3 176254074#4 176726992#0 176726992#1 176726992#2 176726992#3 176726992#5 176726992#6 176726992#7 176726992#8 250475139#10 176728169#0 -176733527#2"/>
    </vehicle>
    <vehicle id="veh41" type="veh_passenger" depart="112.00" departLane="best" departSpeed="max">
        <route edges="815981475 -176719384#2 176719411#0 176719411#1 176719411#2 176719411#3 176719411#4 -176719436#2 -176719436#1 -176719436#0 176230347#4 -176230338#13 -176230338#10 -176230338#9 -176230338#7 -176230338#6 -176230338#5 -176230338#4 -176230338#2 -176230338#1 -176230344 176254067#2"/>
    </vehicle>
    <vehicle id="veh42" type="veh_passenger" depart="114.73" departLane="best">
        <route edges="539408154#2 -539408154#2 -250475139#12 -250475139#10 -250475139#9 -250475139#8 -250475139#7 -235302307#4 -176728182#1 176728189#2 176728189#3"/>
    </vehicle>
    <vehicle id="veh43" type="veh_passenger" depart="117.46" departLane="best" departSpeed="max">
        <route edges="-176254043#5 -176254043#4 -176254043#3 -176254043#2 -176254043#1 -176254043#0 176230338#6 176230338#7 176230338#9 176714604#1 176714659#1 176714659#2"/>
    </vehicle>
    <vehicle id="veh44" type="veh_passenger" depart="120.19" departLane="best">
        <route edges="176714638#1 -176714623#1 176714642#0 176714642#1 176334989#2 176334989#3 176334989#4 176334991 176334985#0 176334985#1 176254067#2 176254067#3 176254067#4 176254067#5 176254067#6 176254067#7 176254067#8 176254067#9 176254067#10 176254067#11 176254067#12 176254067#13 176254067#14 176254067#15 176254067#16 176504324 -240273032 -176334984#0 252218712 176254072#2 176254072#3"/>
    </vehicle>
    <vehicle id="veh45" type="veh_passenger" depart="122.93" departLane="best">
        <route edges="-176719485#0 176719411#4 -176719436#2 -176719436#1 -176719436#0 176230347#4 -176230338#13 -176230338#10 -176230338#9 -176230338#7 -176230338#6 -176230338#5 -176230338#4 -176230338#2 -176230338#1 -176230344 176254067#2 176254067#3 176254067#4 176254067#5 176254067#6 -176498853 -176498846#1 -176498846#0 176498846#0"/>
    </vehicle>
    <vehicle id="veh46" type="veh_passenger" depart="125.66" departLane="best">
        <route edges="-176498832#9 -176498832#8 -176498832#6 -176498832#5 -176498832#4 -176498832#3 -176498832#2 -176498832#1 -176498832#0 176498838#1 176498838#2 176334989#4 176334991 176334985#0 176334985#1 176334985#4 176334985#5 176334985#6 176334985#7 176254053 -176892594#5 -176892596"/>
    </vehicle>
    <vehicle id="veh47" type="veh_passenger" depart="128.39" departLane="best">
        <route edges="1047426179#0 -1047426179#0 176498846#3 -176254067#6 -176254067#5 -176254067#4 -176254067#3 -176254067#2 176334985#4 176334985#5 176334985#6 176334985#7 176254053 176254074#1 176254074#2 176254074#3 176254074#4 176726992#0 176726992#1 176726992#2 176726992#3 176726992#5 176726992#6 176726992#7 176726992#8 -250475139#9 -250475139#8 -250475139#7 -250475139#6 -250475139#5 -250475139#4 -250475139#3 -250475139#2 -250475139#1 -250475139#0 250475139#0"/>
    </vehicle>
    <vehicle id="veh48" type="veh_passenger" depart="131.12" departLane="best" departSpeed="max">
        <route edges="176887840#0 176887840#1 -176254067#8 -176254067#7 -176254067#6 -176254067#5 -176254067#4 -176254067#3 -176254067#2 176230344 176230338#1 176230338#2 176230338#4 176230338#5 176230338#6 176230338#7 176230338#9 176230338#10 176230338#13 -176230347#4 176719436#0 176719436#1 176719436#2 176719436#3 -176719436#3"/>
    </vehicle>
    <vehicle id="veh49" type="veh_passenger" depart="133.85" departLane="best">
        <route edges="176259820#5 -176259820#5 -176259820#4 -176259820#3 -176259820#2 -176259820#1 -176259820#0 176259828#0 176259828#1 176259828#2 258027991#0 176257712#10 255337383 -240272960#8 -240272960#7 -258028298#2 -258028298#1 -258028298#0 -730948890#1 -176494272#1 -176494272#0 -176498850#0 -176498830 176887845#0 -176254067#11 -176254067#10 -176254067#9 -176254067#8 -176254067#7 -176254067#6 -176254067#5 -176254067#4 -176254067#3 -176254067#2 176230344 176230338#1 176230338#2 176230338#4 176230338#5 176230338#6 176230338#7 176230338#9 176230338#10 -176714614"/>
    </vehicle>
    <vehicle id="veh50" type="veh_passenger" depart="136.58" departLane="best">
        <route edges="-176726993#1 -176727012#3 -176727012#2 176726993#3 -176726992#1 -176726992#0 -176254074#4 -176254074#3 -176254074#2 -176254074#1 -176254074#0 -176334985#7 -176334985#6 -176334985#5 -176334985#4 -176334985#1 -176334985#0 -176334991 -176334989#4 -176334989#3 176498852#0 176498852#1 176498852#2 176498835#0 176498845#3"/>
    </vehicle>
    <vehicle id="veh51" type="veh_passenger" depart="139.32" departLane="best">
        <route edges="176498854#3 176498854#4 176498854#5 730948890#0 730948890#1 258028298#0 258028298#1 258028298#2 240272960#7 240272960#8 258027992#0 176257712#12 176257712#0 176257712#1 176257712#2 176257712#3 176257712#4 176257697#0 176254044#0 176254044#1 176254044#2 176254044#3 -176504314#2"/>
    </vehicle>
    <vehicle id="veh52" type="veh_passenger" depart="142.05" departLane="best">
        <route edges="176719457#3 176719457#5 176719457#6 176719457#7 176719457#8 -176259823#0 -176259832#2 -176259832#1 -176259832#0 -176230338#5 -176230338#4 -176230338#2 -176230338#1 -176230344 176334985#4 176334985#5 176334985#6 176334985#7 176254053 176254074#1 176254074#2"/>
    </vehicle>
    <vehicle id="veh53" type="veh_passenger" depart="144.78" departLane="best">
        <route edges="176719485#2 176719451#2 176719451#3 -176719436#6 -176719436#5 -176719436#4 -176719436#3 -176719436#2 -176719436#1 -176719436#0 176230347#4 -176230338#13 -176230338#10 -176230338#9 -176230338#7 -176230338#6 -176230338#5 -176230338#4 -176230338#2 -176230338#1 -176230344 176254067#2 176254067#3 176254067#4"/>
    </vehicle>
    <vehicle id="veh54" type="veh_passenger" depart="147.51" departLane="best">
        <route edges="-1047426179#0 176498846#3 -176254067#6 -176254067#5 -176254067#4 -176254067#3 -176254067#2 176334985#4 176334985#5 176334985#6 176334985#7 176254053 176254074#1 176254074#2 176254074#3 176254074#4 176726992#0 176726992#1 -176726992#1 -176726992#0"/>
    </vehicle>
    <vehicle id="veh55" type="veh_passenger" depart="150.24" departLane="best">
        <route edges="-176254067#15 -176254067#14 176254067#14 176254067#15 176254067#16 176504324 -240273032 -176334984#0 252218712 176254072#2 176254072#3 176254058 -176254044#4 -176254044#3 -176254044#2 -176254044#1 -176254044#0 258027993#2 176257712#7 176257712#8 255337382 -176334983 -176259828#1 -176259828#0 176259820#0 176259820#1 176259820#2 176259820#3 176259820#4 176906396"/>
    </vehicle>
    <vehicle id="veh56" type="veh_passenger" depart="152.97" departLane="best" departSpeed="max">
        <route edges="176887843 176887832#2 176887832#3 176887832#4 176887832#5 176887832#6 176887832#7 176887832#8 176334985#6 176334985#7 176254053 176254074#1 176254074#2 176254074#3 176254074#4 176726992#0 176726992#1 176726992#2 176726992#3 176726992#5 176726992#6 176726992#7 176727020#0 176727020#1 176727020#2 176726998#0"/>
    </vehicle>
    <vehicle id="veh57" type="veh_passenger" depart="155.71" departLane="best">
        <route edges="-176727004#0 176259817#4 176259822 176259824#5 176259824#6 176259824#1 252219055 176259848#0 176259848#1 176259848#2 -176726992#3 -176726992#2 -176726992#1 -176726992#0 -176254074#4 -176254074#3 -176254074#2 -176254074#1 -176254074#0 -176334985#7 -176334985#6 -176334985#5 -176334985#4 -176334985#1 -176334985#0 -176334991 -176334989#4 -176334989#3 -176334989#2 -176334989#1 -176334989#0"/>
    </vehicle>
    <vehicle id="veh58" type="veh_passenger" depart="158.44" departLane="best">
        <route edges="176887842#0 -176887832#4 -176887844#1 -176887844#0 176254067#8 176254067#9 176254067#10 176254067#11 -176887845#0 176498830 176498850#0 176494272#0 176494272#1 730948890#1 -730948894 -730948893#2 -730948893#1 -730948893#0 176494270#0 176494270#1 240272962"/>
    </vehicle>
    <vehicle id="veh59" type="veh_passenger" depart="161.17" departLane="best">
        <route edges="-176494274#6 -176498863#1 -176498863#0 176498831#2 -176498835#4 -176498835#3 -176498835#2 -176498835#1 -176498835#0 -176498852#2 -176498852#1 -176498852#0 176334989#3 176334989#4 176334991 176334985#0 -733496502 176230338#1 176230338#2 176230338#4 176230338#5 176230338#6 176230338#7 176230338#9 176230338#10 176230338#13 -176230347#4 176719436#0 176719436#1 176719436#2 176719436#3 176719436#4 176719436#5 176719436#6 176719436#7 176719445#0 176719445#1 176719445#2 176719445#3 176719445#4 -731225651"/>
    </vehicle>
    <vehicle id="veh60" type="veh_passenger" depart="163.90" departLane="best">