<?xml version="1.0" encoding="UTF-8"?>

<!-- generated on 2025-03-26 01:37:46 by Eclipse SUMO polyconvert Version 1.22.0
<polyconvertConfiguration xmlns:xsi="http://www.w3.org/2001/XMLSchema-instance" xsi:noNamespaceSchemaLocation="http://sumo.dlr.de/xsd/polyconvertConfiguration.xsd">

    <input>
        <net-file value="osm.net.xml"/>
        <osm-files value="osm_bbox.osm.xml"/>
        <osm.keep-full-type value="true"/>
        <type-file value="C:\Program%20Files%20(x86)\Eclipse\Sumo\data\typemap\osmPolyconvert.typ.xml"/>
    </input>

    <output>
        <output-file value="osm.poly.xml"/>
    </output>

    <report>
        <verbose value="true"/>
    </report>

</polyconvertConfiguration>
-->

<additional xmlns:xsi="http://www.w3.org/2001/XMLSchema-instance" xsi:noNamespaceSchemaLocation="http://sumo.dlr.de/xsd/additional_file.xsd">
    <location netOffset="-390740.75,-5819733.27" convBoundary="-1453.63,-1081.84,3236.57,2389.08" origBoundary="13.368759,52.506732,13.436728,52.538857" projParameter="+proj=utm +zone=33 +ellps=WGS84 +datum=WGS84 +units=m +no_defs"/>

    <poly id="100950874" type="building.commercial" color="255,230,230" fill="1" layer="-1.00" shape="907.550370,594.726199 887.791021,587.018021 884.096371,576.795624 895.175759,557.566759 906.809417,563.385015 908.071323,564.892703 908.733967,566.925521 907.550370,594.726199"/>
    <poly id="100950876" type="building.office" color="255,230,230" fill="1" layer="-1.00" shape="946.100252,537.501005 933.983455,561.392901 932.119284,604.152987 932.260233,606.842748 933.066099,610.441392 934.345520,613.662349 936.301247,617.079772 938.938481,620.315206 943.933956,624.299668 947.111180,625.865151 966.923318,633.516755 999.829876,562.329257 977.807335,551.109919 947.835033,535.838008 947.138466,535.953562 946.702512,536.497329 946.100252,537.501005"/>
    <poly id="100950877" type="building.office" color="255,230,230" fill="1" layer="-1.00" shape="977.758103,572.520499 958.063627,614.395175 951.811735,612.218902 949.135302,610.586701 947.531583,607.740124 946.480629,602.266335 948.189909,570.603899 973.590749,570.687572 977.758103,572.520499"/>
    <poly id="100950878" type="building.commercial" color="255,230,230" fill="1" layer="-1.00" shape="916.543269,613.722344 921.532379,600.236593 923.018148,567.989324 922.906371,564.163903 921.660572,559.395468 919.173956,555.299884 915.221305,551.514925 911.271743,549.710614 889.781688,538.335223 870.527291,572.466846 868.754102,578.526126 868.888157,584.276130 870.579703,590.781721 877.434201,598.408209 916.543269,613.722344"/>
    <poly id="1027050440" type="leisure.park" color="207,245,201" fill="1" layer="-2.00" shape="264.762002,275.027474 227.960837,272.741990 221.620906,365.431800 246.896664,367.461869 248.336007,348.568466 249.518993,348.653411 251.036103,330.203386 259.537814,330.347994 264.762002,275.027474"/>
    <poly id="1043377446" type="natural.scrub" color="140,196,107" fill="1" layer="-4.00" shape="860.360046,509.320187 857.386404,515.116724 876.134260,524.950293 879.250773,518.861288 860.360046,509.320187"/>
    <poly id="1043377447" type="natural.scrub" color="140,196,107" fill="1" layer="-4.00" shape="849.374745,521.147190 838.827383,542.022395 861.807266,552.930613 874.618259,527.910404 855.851042,518.121780 853.222206,523.243031 849.374745,521.147190"/>
    <poly id="1043377448" type="natural.scrub" color="140,196,107" fill="1" layer="-4.00" shape="835.815957,555.920680 832.708598,554.142295 837.013369,545.623390 860.050606,556.363415 847.747516,580.404324 828.533416,570.659085 835.815957,555.920680"/>
    <poly id="1043377453" type="landuse.grass" color="194,194,130" fill="1" layer="-3.00" shape="995.691597,469.394072 1002.052959,466.382529 1011.474522,462.402018 1018.208111,460.261348 1023.737576,459.226677 1035.017198,458.543424 1027.563234,452.966316 1030.661788,449.125587 1023.582816,443.317645 1022.734324,442.702125 1021.179516,442.068833 1019.506865,441.938887 1018.053872,442.226935 1016.724572,442.890588 1015.944810,443.542095 1015.290116,444.324369 996.636228,466.068294 995.931645,467.663988 995.691597,469.394072"/>
    <poly id="1043377454" type="landuse.grass" color="194,194,130" fill="1" layer="-3.00" shape="997.164858,473.400818 1021.912353,500.717287 1024.578984,497.297819 1032.273407,487.958637 1035.732596,482.930416 1038.958615,478.408091 1041.800006,471.223647 1043.514994,466.512164 1041.281273,464.336005 1040.032165,463.406635 1038.237357,462.355793 1036.727934,461.932917 1034.896055,461.661826 1030.079148,461.768275 1027.037240,462.336243 1016.974047,464.005239 999.914084,470.647167 997.164858,473.400818"/>
    <poly id="1043377455" type="landuse.grass" color="194,194,130" fill="1" layer="-3.00" shape="1025.707099,501.045139 1026.506912,500.994080 1061.657367,467.691425 1059.476306,465.747774 1056.218377,466.676578 1050.310518,467.174322 1044.551741,474.111653 1042.739128,476.555265 1037.203956,485.624160 1030.994946,493.072199 1025.733450,500.087584 1025.707099,501.045139"/>
    <poly id="104786904" type="landuse.grass" color="194,194,130" fill="1" layer="-3.00" shape="270.162836,234.959038 275.661019,172.110162 253.714023,170.239505 248.464382,232.348459 270.162836,234.959038"/>
    <poly id="104786906" type="building.yes" color="255,230,230" fill="1" layer="-1.00" shape="282.059372,338.548626 345.383616,350.137064 338.378968,360.229827 334.691052,365.018840 330.217803,370.815684 328.311254,373.295043 314.212716,372.373478 302.833173,371.625143 303.433936,364.456702 324.941131,366.125908 326.271583,359.108156 286.412808,352.383569 284.895980,353.463319 283.046913,362.796047 284.077751,363.974895 283.876135,364.980870 283.029699,365.378044 282.808480,370.078833 279.321341,369.855982 276.017384,369.629057 276.418632,367.528130 280.277303,348.146927 281.886148,338.085119 282.059372,338.548626"/>
    <poly id="104786907" type="building.residential" color="255,230,230" fill="1" layer="-1.00" shape="310.832308,320.193263 309.557129,333.051803 269.867191,325.689311 272.965836,293.505970 286.593896,294.627062 287.789904,280.957959 301.097631,282.019455 299.960341,294.363058 292.142541,293.535502 290.857831,307.184322 298.753314,307.843232 298.292180,313.050101 297.827519,319.013728 310.832308,320.193263"/>
    <poly id="104786910" type="building.yes" color="255,230,230" fill="1" layer="-1.00" shape="388.545663,346.985247 401.217105,330.423849 385.121510,317.840191 385.827433,316.923159 385.046929,316.317362 388.121272,312.320964 388.832447,312.861537 389.775942,311.638779 393.732986,314.677684 394.491706,313.692715 411.273162,326.594989 418.532771,317.275606 428.586549,320.368222 408.416364,346.487928 400.928261,356.213002 388.545663,346.985247"/>
    <poly id="104786915" type="building.yes" color="255,230,230" fill="1" layer="-1.00" shape="386.058238,340.130280 372.530559,337.715878 371.413646,343.961060 384.916149,346.465039 386.058238,340.130280"/>
    <poly id="104786916" type="building.office" color="255,230,230" fill="1" layer="-1.00" shape="414.351704,272.390628 409.511520,289.478969 447.592191,300.483699 452.393125,286.512009 449.727959,285.402818 447.173661,283.478849 444.471447,281.313359 440.771664,279.770928 426.460964,275.726881 414.351704,272.390628"/>
    <poly id="1048127662" type="landuse.religious" color="194,194,130" fill="1" layer="-3.00" shape="760.864756,183.526124 710.998235,265.862598 726.796778,274.570348 773.339933,300.223163 777.062980,295.467101 781.316584,298.421849 806.713822,262.718417 818.797094,237.302484 826.881866,216.771104 760.864756,183.526124"/>
    <poly id="1051150923" type="landuse.grass" color="194,194,130" fill="1" layer="-3.00" shape="1146.874175,157.931672 1148.991991,157.005846 1147.522435,152.242300 1144.901021,147.882518 1140.602124,143.793446 1129.232353,136.121611 1112.016912,124.406032 1082.408093,104.785452 1072.293226,98.310061 1070.791311,98.231960 1069.187074,98.745882 1068.023949,99.561632 1060.668335,109.827960 1062.172818,112.788044 1068.993844,117.655906 1074.724954,122.659127 1078.924059,127.451386 1083.470691,133.226327 1087.404772,138.313762 1087.764554,138.928961 1088.635773,138.420106 1091.837669,143.857543 1090.973235,144.366247 1092.413248,146.559960 1095.986210,150.665023 1099.779256,153.363154 1103.378547,155.587080 1108.236768,157.338106 1112.563870,158.399827 1115.186239,158.497710 1121.558970,158.746469 1130.509186,158.904950 1137.702786,158.824036 1142.438170,159.008819 1145.542325,158.484067 1146.874175,157.931672"/>
    <poly id="1051150924" type="landuse.grass" color="194,194,130" fill="1" layer="-3.00" shape="1048.722617,124.335168 1051.139822,126.206836 1053.450924,128.192125 1055.523327,130.127050 1057.516522,132.163874 1059.576675,134.466282 1061.662341,137.001806 1070.925551,139.957415 1078.924072,142.818571 1087.273309,146.807008 1088.365663,146.782882 1088.948082,146.413937 1088.891008,145.981222 1086.511521,142.127995 1082.537892,135.249893 1077.673602,129.537607 1071.912531,123.177480 1067.971957,119.948505 1061.860734,115.254133 1060.252534,114.666515 1058.517482,114.482292 1057.200728,114.489126 1048.722617,124.335168"/>
    <poly id="1051150927" type="landuse.grass" color="194,194,130" fill="1" layer="-3.00" shape="980.542928,228.449443 994.150610,206.850422 996.688250,208.029490 999.268218,208.973944 1003.193773,209.988806 1007.129111,210.524968 1010.599792,210.615172 1014.651404,210.269692 1018.779910,209.410646 1022.970023,207.960481 1026.911121,205.992825 1032.760362,212.350951 1039.709527,222.100947 1041.678536,226.731025 1037.532874,229.270696 1033.924636,230.941671 1029.426965,232.910493 1025.123648,234.151732 1020.779034,235.060059 1015.397742,235.746494 1009.093635,236.141760 999.559130,235.339893 992.624580,233.623746 987.074495,231.587686 980.542928,228.449443"/>
    <poly id="1051150928" type="landuse.grass" color="194,194,130" fill="1" layer="-3.00" shape="950.010042,169.803380 958.662849,159.274510 960.103078,157.484505 961.516472,156.629811 963.371225,156.088059 965.476828,156.453223 966.673367,157.150060 977.852647,164.792354 976.625166,168.836551 975.942581,172.657276 975.721518,177.702961 976.016580,181.223883 976.767058,185.079691 978.265042,189.586629 979.611537,192.461161 981.837152,196.106316 984.072444,198.961200 986.455178,201.423360 989.677348,204.089516 975.950603,226.136286 972.236251,223.314107 968.279657,219.974291 964.377768,215.731933 960.724594,211.072357 957.543435,205.656799 954.736168,200.266356 952.561004,194.606003 951.065685,188.685810 950.108861,182.252967 949.790787,175.850509 950.010042,169.803380"/>
    <poly id="1051150930" type="landuse.grass" color="194,194,130" fill="1" layer="-3.00" shape="894.121094,185.950595 886.944813,201.231779 887.934764,207.930942 888.731356,208.959310 889.649861,209.361835 892.112717,209.307342 894.135868,210.241806 924.671627,187.366735 928.694939,184.206529 936.511121,176.366745 936.293065,175.715040 935.723327,174.815178 934.351058,173.232028 933.378907,172.552491 931.956111,172.060963 930.353078,171.706952 925.030367,171.668896 921.722800,172.509861 919.198682,173.478157 915.133958,175.993886 911.210413,179.674893 908.014499,182.494109 904.900287,184.710630 901.317720,186.314369 898.139113,186.540480 895.310255,186.313750 894.121094,185.950595"/>
    <poly id="1051150931" type="natural.scrub" color="140,196,107" fill="1" layer="-4.00" shape="900.282865,173.596170 903.961107,166.804855 904.964234,167.350170 907.756908,162.258716 906.753534,161.702279 907.921509,159.573325 908.911068,160.118941 911.632070,155.162607 910.642511,154.616990 911.647266,152.780966 912.952863,153.497633 915.765171,148.372368 914.459572,147.655700 915.483947,145.785860 916.342874,146.256474 919.194668,141.074699 918.335741,140.604085 919.243792,138.692308 921.526381,137.851759 924.607947,139.374843 927.170524,141.065194 929.457771,142.583595 933.475722,146.545171 932.641744,147.509461 931.685561,149.700489 930.273955,151.556636 928.850154,153.168245 927.736279,154.060834 926.924420,154.490512 924.923887,154.579271 919.164147,155.652519 917.733358,156.641141 914.917884,163.157425 912.215978,166.522089 910.201903,170.294387 909.091973,171.364935 907.074956,172.856143 905.630500,173.533499 904.088492,173.790165 900.282865,173.596170"/>
    <poly id="1051150932" type="man_made.embankment" color="255,230,230" fill="0" layer="-1.00" shape="897.537207,178.664333 900.282865,173.596170 903.961107,166.804855 904.964234,167.350170 907.756908,162.258716 906.753534,161.702279 907.921509,159.573325 908.911068,160.118941 911.632070,155.162607 910.642511,154.616990 911.647266,152.780966 912.952863,153.497633 915.765171,148.372368 914.459572,147.655700 915.483947,145.785860 916.342874,146.256474 919.194668,141.074699 918.335741,140.604085 919.243792,138.692308 921.526381,137.851759 924.607947,139.374843 927.170524,141.065194"/>
    <poly id="1051150934" type="landuse.grass" color="194,194,130" fill="1" layer="-3.00" shape="933.475722,146.545171 934.600198,147.666443 936.284678,149.554261 940.093785,155.122833 942.186270,159.805783 944.715085,167.950891 939.912259,172.697313 938.016743,172.316386 936.085725,171.557907 934.266357,170.630045 931.777366,170.117588 927.897495,169.635895 925.328522,169.803994 922.062051,170.354732 918.583985,171.466532 914.878256,173.640493 909.878354,178.068605 908.234360,179.852006 906.409148,181.728437 904.727437,183.034187 902.796063,184.100654 900.696934,184.948282 897.926396,185.209875 896.256501,184.901865 894.675194,184.302579 894.928621,183.484657 897.537207,178.664333 900.282865,173.596170 904.088492,173.790165 905.630500,173.533499 907.074956,172.856143 909.091973,171.364935 910.201903,170.294387 912.215978,166.522089 914.917884,163.157425 917.733358,156.641141 919.164147,155.652519 924.923887,154.579271 926.924420,154.490512 927.736279,154.060834 928.850154,153.168245 930.273955,151.556636 931.685561,149.700489 932.641744,147.509461 933.475722,146.545171"/>
    <poly id="1051150938" type="landuse.grass" color="194,194,130" fill="1" layer="-3.00" shape="944.407724,121.822703 947.962900,122.968118 952.568351,124.335117 956.541623,125.048444 962.532741,125.227543 965.737545,124.956386 969.914203,124.430065 971.683572,124.324180 973.014787,125.585548 970.304525,131.031221 964.281793,141.702210 959.335296,150.390953 956.439314,155.417894 951.587410,161.322658 948.589161,164.794003 947.668439,164.291367 946.281289,163.876940 944.490969,158.430631 942.332750,153.537710 939.172240,148.444405 935.809573,144.646373 931.446827,140.748059 933.966045,139.557327 936.761657,137.359001 938.611824,135.381881 939.755734,133.698572 940.803080,131.639061 941.682916,129.371830 942.349430,127.587803 943.310728,124.706753 944.073707,122.987359 944.407724,121.822703"/>
    <poly id="1051153671" type="landuse.grass" color="194,194,130" fill="1" layer="-3.00" shape="1117.769625,190.955447 1112.801264,184.522135 1107.995203,177.139399 1104.494630,171.085404 1100.649468,164.182197 1097.553327,159.844049 1091.440150,153.213487 1085.652298,148.712242 1078.440491,145.510999 1072.919509,142.951200 1066.960154,141.135511 1064.311523,140.771171 1066.600123,144.503993 1068.257298,147.616491 1069.740031,150.821864 1071.394877,155.058301 1072.188223,157.477716 1072.887318,159.932597 1073.879706,164.294943 1074.567759,168.708521 1074.905669,172.328648 1075.031040,175.853322 1074.914161,180.395956 1074.448406,185.124337 1073.623797,189.894028 1072.595460,194.045075 1077.939513,195.050919 1086.963901,195.496997 1097.781391,195.068924 1105.179187,194.093244 1112.557830,192.250048 1117.769625,190.955447"/>
    <poly id="1051153672" type="natural.scrub" color="140,196,107" fill="1" layer="-4.00" shape="1116.733729,168.634146 1116.527850,169.762577 1116.493800,170.987362 1116.670078,172.207504 1117.141786,173.588035 1117.833461,174.785669 1118.447711,175.551037 1119.548345,176.517090 1120.518504,177.107686 1121.498057,177.508907 1122.985240,177.843281 1124.282604,177.881403 1125.763802,177.637277 1127.002869,177.187073 1128.429117,176.298762 1129.300242,175.478344 1130.157462,174.335534 1130.837206,172.840560 1131.169454,171.286492 1131.105638,169.318320 1131.124714,167.415083 1132.105095,168.161242 1134.027227,170.978595 1134.417668,172.060478 1134.656839,174.592285 1134.246456,176.604308 1133.109857,178.621236 1131.234858,180.398532 1127.635393,182.469834 1124.324767,182.865626 1123.232420,182.889743 1120.896807,182.251401 1116.894386,180.214406 1115.684950,179.239628 1114.377152,177.499220 1113.777487,175.242435 1114.262957,172.327418 1115.096381,171.029345 1116.733729,168.634146"/>
    <poly id="1051153673" type="landuse.grass" color="194,194,130" fill="1" layer="-3.00" shape="1131.124714,167.415083 1131.026302,164.802276 1130.978447,163.557044 1131.724412,162.294287 1133.427615,161.344225 1134.384270,161.323106 1144.560340,162.277991 1148.134317,163.356367 1148.334558,165.354911 1147.588589,166.617665 1142.697818,172.923682 1136.872391,179.016660 1130.977140,184.098576 1124.460779,188.103711 1120.142631,190.213142 1111.303681,178.490673 1107.863470,173.325549 1105.902641,169.986064 1101.422287,161.984126 1101.000554,159.178162 1101.355604,157.734864 1103.280306,158.515802 1107.249870,159.986006 1110.364365,160.851950 1113.333585,161.287129 1115.041970,161.494214 1116.524276,162.529732 1117.386709,163.467661 1116.733729,168.634146 1115.096381,171.029345 1114.262957,172.327418 1113.777487,175.242435 1114.377152,177.499220 1115.684950,179.239628 1116.894386,180.214406 1120.896807,182.251401 1123.232420,182.889743 1124.324767,182.865626 1127.635393,182.469834 1131.234858,180.398532 1133.109857,178.621236 1134.246456,176.604308 1134.656839,174.592285 1134.417668,172.060478 1134.027227,170.978595 1132.105095,168.161242 1131.124714,167.415083"/>
    <poly id="1051153674" type="landuse.grass" color="194,194,130" fill="1" layer="-3.00" shape="1012.616601,263.782712 1016.241720,261.955561 1023.246034,263.759218 1022.957291,264.822720 1029.225906,266.509114 1029.514405,265.434490 1035.064091,267.147906 1040.395970,269.756348 1046.427741,272.705413 1048.800633,274.110698 1048.420970,276.589410 1047.096909,280.257385 1044.528691,286.601215 1042.214907,292.171621 1039.538305,296.681798 1037.871393,299.578420 1036.094849,302.121383 1032.628446,306.215040 1029.814612,305.743097 1028.470381,304.504258 1026.418063,296.103775 1023.737379,285.992403 1022.434791,280.802352 1020.727137,276.633864 1018.810335,273.137654 1016.800021,269.710277 1014.469842,266.245459 1012.616601,263.782712"/>
    <poly id="1051153675" type="landuse.grass" color="194,194,130" fill="1" layer="-3.00" shape="997.506085,240.114499 1000.619715,240.635436 1003.634918,241.002765 1006.660739,241.236330 1011.298363,241.300741 1014.811108,241.145211 1018.853943,240.710906 1023.242700,239.957388 1027.806779,238.843916 1030.611266,237.969629 1033.379373,236.984871 1033.751593,237.855725 1039.414656,235.482818 1038.999517,234.512764 1041.770630,233.049458 1044.450840,231.465759 1046.158882,235.344929 1047.913025,241.003495 1048.795340,245.913520 1049.619390,251.258808 1049.983801,256.692145 1049.865370,262.392084 1049.097214,270.943912 1039.075343,266.514019 1031.184566,263.606042 1022.838322,260.975205 1013.935825,258.668248 1010.901214,257.422263 1007.553229,255.203979 1005.453424,253.870570 1003.012366,251.532095 1001.063538,248.737637 999.129654,245.698042 997.780871,242.411835 997.506085,240.114499"/>
    <poly id="1051153676" type="landuse.grass" color="194,194,130" fill="1" layer="-3.00" shape="977.815654,232.816115 971.953304,241.525098 971.950163,242.304099 972.556225,243.926455 973.468234,245.263856 974.559885,246.129927 982.135781,249.222818 986.754382,251.190444 993.949777,253.345919 1002.338726,256.064785 1001.936215,254.437927 1001.247127,253.051082 1000.218558,251.660614 998.625189,249.592721 997.057774,246.856599 995.150236,242.859451 992.422239,238.902695 988.676448,237.728083 985.027754,236.339902 980.844833,234.429411 977.815654,232.816115"/>
    <poly id="1051153677" type="landuse.grass" color="194,194,130" fill="1" layer="-3.00" shape="961.358496,262.456677 960.925289,260.363142 960.851235,259.163000 967.464314,248.490074 969.042973,247.743003 970.491942,247.577435 972.273953,247.738331 976.620682,249.689704 976.076589,250.870130 981.596769,253.396453 982.134324,252.227299 991.282772,255.218672 990.925942,256.272554 996.821033,258.256481 997.177863,257.202600 1000.943599,258.666095 1004.281997,260.450611 1007.165330,262.222932 1008.931061,263.797405 1011.697380,266.418011 1014.919642,270.319342 1016.721011,273.506530 1018.247305,276.532883 1019.421484,280.212420 1020.512966,284.450163 1021.776666,290.030538 1022.685206,294.283452 1024.276920,301.191889 1024.770468,304.174303 1024.719383,305.855697 1023.665948,308.560726 1021.715229,309.672085 1017.977219,307.618201 1014.398299,304.470300 961.358496,262.456677"/>
    <poly id="1051153678" type="landuse.grass" color="194,194,130" fill="1" layer="-3.00" shape="953.970141,257.100771 955.303377,257.227074 956.632823,256.874976 957.623426,256.241053 958.394113,255.178018 964.022937,246.040204 961.269253,242.150799 957.850927,239.822827 957.211505,240.682663 951.870878,236.761448 952.510301,235.901611 938.384195,226.989240 937.866653,227.835256 932.493018,224.571318 933.010560,223.725302 917.550670,216.200056 917.115039,217.066517 911.041180,214.062899 911.470026,213.196587 905.453070,211.538155 900.826521,211.362322 897.838675,213.153204 897.275930,217.171589 910.350057,225.472843 953.970141,257.100771"/>
    <poly id="1051153679" type="landuse.grass" color="194,194,130" fill="1" layer="-3.00" shape="906.746537,206.490995 908.779350,208.782818 911.060913,210.045401 921.955259,214.934227 935.384200,222.092685 949.263412,230.276086 960.526783,238.350453 964.102530,240.430139 965.400372,240.490463 967.491038,240.488746 973.755143,230.302034 969.885236,227.505551 967.001668,225.110111 963.569707,221.858847 960.181444,218.128132 956.287256,213.006530 953.190072,208.011965 951.666178,205.096853 950.462004,202.519626 949.025858,198.968301 948.083336,196.251757 947.268985,193.498996 945.888160,187.231317 945.448095,184.214344 945.157050,181.182949 945.008484,178.148402 943.060210,177.223388 937.246280,182.904636 926.676159,192.062751 910.941759,203.738692 906.746537,206.490995"/>
    <poly id="1079230864" type="landuse.commercial" color="209,209,204" fill="1" layer="-3.00" shape="946.780930,515.798266 989.074740,537.296263 1011.885616,548.865438 1013.984806,550.176604 1015.710814,552.108037 1017.003366,554.082434 1017.821020,556.067328 1018.230881,558.027853 1018.534014,560.380202 1018.319626,562.042952 1024.339458,563.545657 1026.812063,558.105255 1038.314931,563.848815 1044.966026,567.195902 1056.371853,573.464644 1058.343648,574.233391 1060.377781,574.444383 1061.825918,574.245474 1063.138766,573.760237 1064.372073,573.054206 1065.326394,572.009384 1067.980823,568.345401 1073.044028,561.879692 1080.036595,553.646593 1116.286650,506.822278 1109.254464,501.280248 1104.940016,496.167820 1103.322821,494.245081 1101.687680,495.505227 1079.687119,471.454839 1087.522440,462.034745 1078.097405,454.798579 1054.074767,435.399785 1028.247623,414.828075 1020.579338,424.433742 946.780930,515.798266"/>
    <poly id="1079230865" type="landuse.residential" color="235,235,227" fill="1" layer="-3.00" shape="1116.286650,506.822278 1123.446984,497.572932 1199.902196,557.220536 1202.055309,555.748697 1211.317391,562.999812 1213.969564,559.536259 1261.991161,597.690570 1265.694197,600.635607 1274.713520,589.498314 1289.771566,569.025396 1276.304445,558.528586 1222.711249,516.123902 1124.792374,438.923128 1116.472939,433.186956 1094.757185,418.966990 1088.035746,414.286074 1082.239190,409.684886 1049.006625,383.278878 1041.215362,377.186202 1030.482267,368.821756 1028.492886,367.875364 1026.946412,367.620223 1025.679922,367.748360 1024.364809,368.133507 1022.936276,369.222199 1021.033565,371.890361 1018.196464,375.892230 1017.541121,375.417100 1017.145605,375.948838 1015.711323,374.934545 1010.544251,381.313582 1003.531625,390.181490 991.951296,404.903348 974.834274,427.392309 968.646266,434.561772 968.039561,435.365247 965.948666,438.115487 968.747751,440.379259 931.815318,488.844415 926.521233,494.380662 925.977146,496.173114 925.908491,497.365285 925.809956,499.047732 925.970246,500.156946 926.462439,501.848581 927.369317,503.875998 928.196684,505.070604 928.498251,505.509037 930.387624,507.459083 946.780930,515.798266 1020.579338,424.433742 1028.247623,414.828075 1054.074767,435.399785 1078.097405,454.798579 1087.522440,462.034745 1079.687119,471.454839 1101.687680,495.505227 1103.322821,494.245081 1104.940016,496.167820 1109.254464,501.280248 1116.286650,506.822278"/>
    <poly id="1079230866" type="landuse.residential" color="235,235,227" fill="1" layer="-3.00" shape="1069.893855,589.189619 1049.222404,576.437897 1038.946146,570.912013 1024.339458,563.545657 1021.776846,570.134191 1015.932268,581.780429 1019.993459,584.339032 1022.197690,586.104110 1028.305295,590.965411 1016.386538,606.017411 1013.345377,610.914007 1040.083083,632.188783 1071.303018,593.064271 1069.893855,589.189619"/>
    <poly id="1080016704" type="leisure.park" color="207,245,201" fill="1" layer="-2.00" shape="1176.400065,193.199819 1173.364410,196.827633 1148.800543,227.058150 1093.328547,293.735360 1087.410348,300.843063 1079.171211,310.739424 1078.305032,311.782294 1073.365688,317.722254 1072.003691,319.365839 1071.051527,320.510759 1055.960129,339.471730 1127.975229,396.779472 1139.119670,405.646912 1139.243028,403.240632 1140.261189,383.255278 1152.454898,374.773946 1152.112805,380.801517 1155.352532,381.197362 1171.066238,374.429920 1200.740679,376.501345 1201.580137,375.169769 1200.007014,374.013829 1202.670939,373.231760 1220.396784,386.594372 1220.227623,390.003141 1222.510971,390.431255 1229.660389,395.748311 1231.496147,398.656624 1231.943119,400.148987 1231.932285,403.965982 1230.485914,406.401442 1228.268080,408.942940 1226.073045,410.671624 1225.776747,418.779033 1173.524516,415.692355 1171.401410,416.373485 1168.801295,418.200156 1165.279682,421.638410 1164.135278,423.299423 1164.710169,423.820858 1202.024928,453.164248 1205.312945,455.751192 1207.169599,457.145684 1210.576049,459.563104 1216.415583,464.274766 1251.182814,492.317151 1260.042207,499.465964 1275.653200,512.063085 1278.265487,514.175361 1280.490985,515.984595 1283.068856,518.075377 1285.375351,516.477791 1340.041238,478.529611 1330.897391,472.021196 1306.682392,454.005260 1298.052843,447.429928 1296.999420,463.688271 1295.252123,481.108052 1281.125638,470.269675 1267.881308,460.346601 1252.227067,448.874338 1270.144130,441.068264 1274.015271,408.534916 1272.320796,409.262188 1275.057024,384.977140 1282.502046,390.465794 1283.396458,381.466128 1292.014312,377.960120 1284.925429,372.307814 1307.050371,363.229597 1306.712190,366.363897 1324.929631,358.618182 1336.604118,353.665074 1337.213388,349.278516 1339.184553,331.842701 1353.476579,341.865293 1368.576773,353.450234 1380.803491,363.395996 1366.845289,369.445299 1349.885990,376.684650 1360.865359,384.855182 1387.641243,406.342418 1424.277138,354.048405 1340.751163,292.349849 1319.914887,277.375092 1301.923691,264.296156 1273.405547,243.270614 1259.006932,249.674880 1201.956513,206.712287 1198.982317,210.049412 1195.390212,207.224371 1186.665841,200.684693 1176.400065,193.199819"/>
    <poly id="1080016705" type="landuse.grass" color="194,194,130" fill="1" layer="-3.00" shape="1078.305032,311.782294 1073.365688,317.722254 1074.942299,319.033864 1073.580055,320.666327 1072.003691,319.365839 1071.051527,320.510759 1078.723909,326.750767 1094.305199,320.130666 1090.887485,311.370850 1089.113200,309.407072 1088.067391,309.385660 1085.629304,310.251824 1083.286541,311.438583 1081.427905,311.802336 1078.305032,311.782294"/>
    <poly id="1080016706" type="landuse.grass" color="194,194,130" fill="1" layer="-3.00" shape="1107.976656,314.320592 1115.864728,310.963921 1093.328547,293.735360 1087.410348,300.843063 1090.114396,301.261826 1092.934577,301.099391 1098.016460,302.533891 1102.087004,303.356458 1106.235986,305.579371 1107.499118,307.142721 1108.051374,309.712124 1107.976656,314.320592"/>
    <poly id="1080016707" type="natural.scrub" color="140,196,107" fill="1" layer="-4.00" shape="1078.305032,311.782294 1081.427905,311.802336 1083.286541,311.438583 1085.629304,310.251824 1088.067391,309.385660 1089.113200,309.407072 1090.887485,311.370850 1094.305199,320.130666 1107.976656,314.320592 1108.051374,309.712124 1107.499118,307.142721 1106.235986,305.579371 1102.087004,303.356458 1098.016460,302.533891 1092.934577,301.099391 1090.114396,301.261826 1087.410348,300.843063 1079.171211,310.739424 1078.305032,311.782294"/>
    <poly id="1081811682" type="landuse.grass" color="194,194,130" fill="1" layer="-3.00" shape="693.329962,370.319650 695.879299,355.797240 698.774368,336.660338 701.133007,323.944834 705.124548,302.825174 705.499737,299.233767 705.501870,297.186239 695.912225,291.445528 663.780695,343.300398 663.913517,347.147608 662.999934,348.803625 693.329962,370.319650"/>
    <poly id="1081811683" type="landuse.grass" color="194,194,130" fill="1" layer="-3.00" shape="703.872693,371.599308 705.029501,372.341472 706.126983,372.550826 707.345857,372.112088 713.823800,366.705149 724.200855,356.527085 736.007548,345.004306 749.529507,330.628270 754.050639,325.131212 750.958846,325.288733 744.719075,323.067929 735.063625,318.641661 726.854390,313.927426 718.677514,306.386075 714.004512,301.048239 713.684813,298.874312 708.587628,311.149763 704.714373,325.356551 701.707031,343.717004 700.374640,353.427561 700.904950,360.815668 702.471939,367.813586 703.872693,371.599308"/>
    <poly id="1081811684" type="amenity.toilets" color="237,199,199" fill="1" layer="-1.00" shape="697.468880,290.320517 701.202481,292.474408 702.366507,290.479020 698.632659,288.314005 697.468880,290.320517"/>