<?xml version="1.0" encoding="UTF-8"?>

<!-- generated on 2025-03-26 01:37:46 by Eclipse SUMO duarouter Version 1.22.0
<duarouterConfiguration xmlns:xsi="http://www.w3.org/2001/XMLSchema-instance" xsi:noNamespaceSchemaLocation="http://sumo.dlr.de/xsd/duarouterConfiguration.xsd">

    <input>
        <net-file value="C:\Users\FADEL\Documents\GitHub\TrafficSimulation\public\2025-03-26-01-37-40\osm.net.xml"/>
        <route-files value="C:\Users\FADEL\Documents\GitHub\TrafficSimulation\public\2025-03-26-01-37-40\osm.passenger.trips.xml"/>
    </input>

    <output>
        <output-file value="C:\Users\FADEL\Documents\GitHub\TrafficSimulation\public\2025-03-26-01-37-40\osm.passenger.trips.xml.tmp"/>
        <write-trips value="true"/>
    </output>

    <time>
        <begin value="0"/>
        <end value="3600"/>
    </time>

    <report>
        <no-warnings value="true"/>
        <ignore-errors value="true"/>
        <no-step-log value="true"/>
    </report>

</duarouterConfiguration>
-->

<routes xmlns:xsi="http://www.w3.org/2001/XMLSchema-instance" xsi:noNamespaceSchemaLocation="http://sumo.dlr.de/xsd/routes_file.xsd">
    <vType id="veh_passenger" vClass="passenger"/>
    <trip id="veh0" type="veh_passenger" depart="0.00" departLane="best" from="28016312" to="-1101961674#1"/>
    <trip id="veh1" type="veh_passenger" depart="37.86" departLane="best" from="1101961674#1" to="-387892378"/>
    <trip id="veh3" type="veh_passenger" depart="113.59" departLane="best" from="171826985#2" to="-1101961674#2"/>
    <trip id="veh4" type="veh_passenger" depart="151.45" departLane="best" from="1144362247" to="-23809670#0"/>
    <trip id="veh5" type="veh_passenger" depart="189.31" departLane="best" departSpeed="max" from="61583424#0" to="1127592486#1"/>
    <trip id="veh6" type="veh_passenger" depart="227.17" departLane="best" from="534588621#0" to="23121445#4"/>
    <trip id="veh7" type="veh_passenger" depart="265.04" departLane="best" from="23121445#4" to="72157174#1"/>
    <trip id="veh9" type="veh_passenger" depart="340.76" departLane="best" departSpeed="max" from="340498976#0" to="-1101961737"/>
    <trip id="veh10" type="veh_passenger" depart="378.62" departLane="best" from="-4610480#1" to="1102369940#1"/>
    <trip id="veh11" type="veh_passenger" depart="416.49" departLane="best" from="-156364570#2" to="-534588621#2"/>
    <trip id="veh14" type="veh_passenger" depart="530.07" departLane="best" departSpeed="max" from="1101961674#0" to="606078071#0"/>
    <trip id="veh15" type="veh_passenger" depart="567.94" departLane="best" from="284493291#0" to="23121445#5"/>
    <trip id="veh17" type="veh_passenger" depart="643.66" departLane="best" from="-23121445#4" to="156364556#1"/>
    <trip id="veh18" type="veh_passenger" depart="681.52" departLane="best" from="831694400#0" to="25294729#1"/>
    <trip id="veh19" type="veh_passenger" depart="719.39" departLane="best" from="24913519#1" to="339201177#0"/>
    <trip id="veh20" type="veh_passenger" depart="757.25" departLane="best" from="490365295#0" to="4610476#5"/>
    <trip id="veh21" type="veh_passenger" depart="795.11" departLane="best" from="-339201177#2" to="606078071#0"/>
    <trip id="veh23" type="veh_passenger" depart="870.84" departLane="best" from="284493291#0" to="168937986"/>
    <trip id="veh24" type="veh_passenger" depart="908.70" departLane="best" from="541763975" to="171826984#2"/>
    <trip id="veh25" type="veh_passenger" depart="946.56" departLane="best" departSpeed="max" from="1101961674#0" to="-534588621#3"/>
    <trip id="veh26" type="veh_passenger" depart="984.42" departLane="best" from="24913519#1" to="1101961674#3"/>
    <trip id="veh27" type="veh_passenger" depart="1022.29" departLane="best" departSpeed="max" from="24914992" to="541763974"/>
    <trip id="veh30" type="veh_passenger" depart="1135.87" departLane="best" from="339201177#4" to="202156994#0"/>
    <trip id="veh31" type="veh_passenger" depart="1173.74" departLane="best" departSpeed="max" from="1101961674#0" to="25294729#1"/>
    <trip id="veh34" type="veh_passenger" depart="1287.32" departLane="best" from="202157002#2" to="-339201177#0"/>
    <trip id="veh35" type="veh_passenger" depart="1325.19" departLane="best" from="1101961737" to="25294729#1"/>
    <trip id="veh36" type="veh_passenger" depart="1363.05" departLane="best" departSpeed="max" from="24914992" to="-23809670#0"/>
    <trip id="veh37" type="veh_passenger" depart="1400.91" departLane="best" from="-1101961735#1" to="606078071#0"/>
    <trip id="veh38" type="veh_passenger" depart="1438.77" departLane="best" departSpeed="max" from="54048862#0" to="4773465#2"/>
    <trip id="veh39" type="veh_passenger" depart="1476.64" departLane="best" departSpeed="max" from="54048862#0" to="606078071#0"/>
    <trip id="veh40" type="veh_passenger" depart="1514.50" departLane="best" departSpeed="max" from="387892378" to="-23121445#1"/>
    <trip id="veh41" type="veh_passenger" depart="1552.36" departLane="best" departSpeed="max" from="1101961674#0" to="541763974"/>
    <trip id="veh43" type="veh_passenger" depart="1628.08" departLane="best" from="831694400#1" to="25294729#1"/>
    <trip id="veh45" type="veh_passenger" depart="1703.81" departLane="best" departSpeed="max" from="-202156991" to="-387892378"/>
    <trip id="veh46" type="veh_passenger" depart="1741.67" departLane="best" from="1127592486#1" to="23121445#0"/>
    <trip id="veh47" type="veh_passenger" depart="1779.53" departLane="best" from="-4610480#1" to="-387892378"/>
    <trip id="veh48" type="veh_passenger" depart="1817.40" departLane="best" from="-4610480#1" to="541763974"/>
    <trip id="veh49" type="veh_passenger" depart="1855.26" departLane="best" from="534588621#3" to="-1173516145#1"/>
    <trip id="veh50" type="veh_passenger" depart="1893.12" departLane="best" from="202156994#0" to="4610476#5"/>
    <trip id="veh53" type="veh_passenger" depart="2006.71" departLane="best" from="831694400#0" to="-195397541#0"/>
    <trip id="veh54" type="veh_passenger" depart="2044.57" departLane="best" departSpeed="max" from="54048862#0" to="-534588621#3"/>
    <trip id="veh56" type="veh_passenger" depart="2120.30" departLane="best" from="831694400#1" to="490365295#0"/>
    <trip id="veh57" type="veh_passenger" depart="2158.16" departLane="best" from="534588621#0" to="-23809670#0"/>
    <trip id="veh59" type="veh_passenger" depart="2233.88" departLane="best" departSpeed="max" from="1101961674#0" to="4610476#5"/>
    <trip id="veh61" type="veh_passenger" depart="2309.61" departLane="best" departSpeed="max" from="61583424#0" to="831694400#1"/>
    <trip id="veh62" type="veh_passenger" depart="2347.47" departLane="best" from="24913519#1" to="339201219"/>
    <trip id="veh63" type="veh_passenger" depart="2385.33" departLane="best" from="-23121445#2" to="1102369940#1"/>
    <trip id="veh64" type="veh_passenger" depart="2423.20" departLane="best" departSpeed="max" from="61583424#0" to="23013165"/>
    <trip id="veh65" type="veh_passenger" depart="2461.06" departLane="best" from="23121445#5" to="35578557#2"/>
    <trip id="veh66" type="veh_passenger" depart="2498.92" departLane="best" from="-23121445#3" to="606078072#1"/>
    <trip id="veh67" type="veh_passenger" depart="2536.78" departLane="best" from="-156364570#2" to="-339201177#1"/>
    <trip id="veh70" type="veh_passenger" depart="2650.37" departLane="best" departSpeed="max" from="54048862#0" to="-534588621#3"/>
    <trip id="veh71" type="veh_passenger" depart="2688.23" departLane="best" departSpeed="max" from="24914992" to="24913519#1"/>
    <trip id="veh72" type="veh_passenger" depart="2726.10" departLane="best" from="168937986" to="23013165"/>
    <trip id="veh73" type="veh_passenger" depart="2763.96" departLane="best" from="23121445#1" to="606078071#0"/>
    <trip id="veh75" type="veh_passenger" depart="2839.68" departLane="best" from="339201177#2" to="1102369940#1"/>
    <trip id="veh76" type="veh_passenger" depart="2877.55" departLane="best" from="-1335908655" to="171826984#2"/>
    <trip id="veh77" type="veh_passenger" depart="2915.41" departLane="best" from="-1335908655" to="-387892378"/>
    <trip id="veh78" type="veh_passenger" depart="2953.27" departLane="best" departSpeed="max" from="1101961674#0" to="606078071#0"/>
    <trip id="veh79" type="veh_passenger" depart="2991.13" departLane="best" from="4773465#2" to="339201177#4"/>
    <trip id="veh80" type="veh_passenger" depart="3029.00" departLane="best" departSpeed="max" from="24914992" to="831694400#0"/>
    <trip id="veh81" type="veh_passenger" depart="3066.86" departLane="best" from="284493291#0" to="-1101961674#0"/>
    <trip id="veh82" type="veh_passenger" depart="3104.72" departLane="best" from="4611698" to="1102369940#1"/>
    <trip id="veh83" type="veh_passenger" depart="3142.58" departLane="best" from="339201177#0" to="606078071#0"/>
    <trip id="veh84" type="veh_passenger" depart="3180.44" departLane="best" departSpeed="max" from="-202156991" to="-195397541#4"/>
    <trip id="veh86" type="veh_passenger" depart="3256.17" departLane="best" from="1101961674#1" to="23121445#4"/>
    <trip id="veh87" type="veh_passenger" depart="3294.03" departLane="best" departSpeed="max" from="340498976#0" to="-339201177#5"/>
    <trip id="veh88" type="veh_passenger" depart="3331.89" departLane="best" from="25294728#1" to="1101961735#0"/>
    <trip id="veh89" type="veh_passenger" depart="3369.76" departLane="best" from="202157002#1" to="541763974"/>
    <trip id="veh90" type="veh_passenger" depart="3407.62" departLane="best" from="534588621#0" to="-168937986"/>
    <trip id="veh91" type="veh_passenger" depart="3445.48" departLane="best" from="171826985#2" to="1101961737"/>
    <trip id="veh92" type="veh_passenger" depart="3483.34" departLane="best" from="25294728#1" to="1101961674#3"/>
    <trip id="veh93" type="veh_passenger" depart="3521.21" departLane="best" from="340498976#9" to="202157002#0"/>
    <trip id="veh94" type="veh_passenger" depart="3559.07" departLane="best" from="171826985#2" to="-1101961674#0"/>
    <trip id="veh95" type="veh_passenger" depart="3596.93" departLane="best" departSpeed="max" from="54048862#0" to="202157002#0"/>
</routes>
