<?xml version="1.0" encoding="UTF-8"?>

<!-- generated on 2025-03-26 01:37:45 by Eclipse SUMO netconvert Version 1.22.0
<netconvertConfiguration xmlns:xsi="http://www.w3.org/2001/XMLSchema-instance" xsi:noNamespaceSchemaLocation="http://sumo.dlr.de/xsd/netconvertConfiguration.xsd">

    <input>
        <type-files value="C:\Program%20Files%20(x86)\Eclipse\Sumo\data\typemap\osmNetconvert.typ.xml"/>
        <osm-files value="osm_bbox.osm.xml"/>
    </input>

    <output>
        <output-file value="osm.net.xml"/>
        <output.street-names value="true"/>
        <output.original-names value="true"/>
    </output>

    <projection>
        <proj.utm value="true"/>
    </projection>

    <processing>
        <geometry.remove value="true"/>
        <roundabouts.guess value="true"/>
    </processing>

    <tls_building>
        <tls.discard-simple value="true"/>
        <tls.join value="true"/>
        <tls.guess-signals value="true"/>
        <tls.default-type value="actuated"/>
    </tls_building>

    <ramp_guessing>
        <ramps.guess value="true"/>
    </ramp_guessing>

    <junctions>
        <junctions.join value="true"/>
        <junctions.corner-detail value="5"/>
    </junctions>

    <report>
        <verbose value="true"/>
    </report>

</netconvertConfiguration>
-->

<net version="1.20" junctionCornerDetail="5" limitTurnSpeed="5.50" xmlns:xsi="http://www.w3.org/2001/XMLSchema-instance" xsi:noNamespaceSchemaLocation="http://sumo.dlr.de/xsd/net_file.xsd">

    <location netOffset="-390740.75,-5819733.27" convBoundary="0.00,0.00,1321.90,721.03" origBoundary="13.368759,52.506732,13.409091,52.527084" projParameter="+proj=utm +zone=33 +ellps=WGS84 +datum=WGS84 +units=m +no_defs"/>

    <type id="highway.footway" priority="1" numLanes="1" speed="2.78" allow="pedestrian" oneway="1" width="2.00"/>
    <type id="highway.living_street" priority="2" numLanes="1" speed="2.78" disallow="tram rail_urban rail rail_electric rail_fast ship container cable_car subway aircraft wheelchair scooter drone" oneway="0"/>
    <type id="highway.path" priority="1" numLanes="1" speed="5.56" allow="pedestrian bicycle" oneway="0" width="2.00"/>
    <type id="highway.pedestrian" priority="1" numLanes="1" speed="2.78" allow="pedestrian" oneway="1" width="2.00"/>
    <type id="highway.primary" priority="12" numLanes="2" speed="27.78" disallow="tram rail_urban rail rail_electric rail_fast ship container cable_car subway aircraft wheelchair scooter drone" oneway="0"/>
    <type id="highway.residential" priority="3" numLanes="1" speed="13.89" disallow="tram rail_urban rail rail_electric rail_fast ship container cable_car subway aircraft wheelchair scooter drone" oneway="0"/>
    <type id="highway.secondary" priority="11" numLanes="1" speed="27.78" disallow="tram rail_urban rail rail_electric rail_fast ship container cable_car subway aircraft wheelchair scooter drone" oneway="0"/>
    <type id="highway.service" priority="1" numLanes="1" speed="5.56" allow="pedestrian delivery bicycle" oneway="0"/>
    <type id="highway.steps" priority="1" numLanes="1" speed="1.39" allow="pedestrian" oneway="1" width="2.00"/>
    <type id="highway.tertiary" priority="10" numLanes="1" speed="22.22" disallow="tram rail_urban rail rail_electric rail_fast ship container cable_car subway aircraft wheelchair scooter drone" oneway="0"/>
    <type id="railway.light_rail" priority="19" numLanes="1" speed="27.78" allow="rail_urban" oneway="1"/>
    <type id="railway.rail" priority="20" numLanes="1" speed="44.44" allow="rail" oneway="1"/>
    <type id="railway.subway" priority="18" numLanes="1" speed="27.78" allow="subway" oneway="1"/>
    <type id="railway.tram" priority="17" numLanes="1" speed="13.89" allow="tram" oneway="1"/>

    <edge id=":10053209432_0" function="internal">
        <lane id=":10053209432_0_0" index="0" allow="pedestrian delivery bicycle" speed="8.33" length="5.98" shape="941.05,426.96 935.83,424.05"/>
    </edge>
    <edge id=":10053209432_1" function="internal">
        <lane id=":10053209432_1_0" index="0" allow="pedestrian delivery bicycle" speed="3.65" length="1.44" shape="941.05,426.96 940.39,425.68"/>
    </edge>
    <edge id=":10053209432_4" function="internal">
        <lane id=":10053209432_4_0" index="0" allow="pedestrian delivery bicycle" speed="3.65" length="3.23" shape="940.39,425.68 940.43,424.79 941.17,424.28 942.61,424.17"/>
    </edge>
    <edge id=":10053209432_2" function="internal">
        <lane id=":10053209432_2_0" index="0" allow="pedestrian delivery bicycle" speed="8.33" length="5.98" shape="937.39,421.25 942.61,424.17"/>
    </edge>
    <edge id=":10053209432_3" function="internal">
        <lane id=":10053209432_3_0" index="0" allow="pedestrian delivery bicycle" speed="3.65" length="1.44" shape="937.39,421.25 938.05,422.54"/>
    </edge>
    <edge id=":10053209432_5" function="internal">
        <lane id=":10053209432_5_0" index="0" allow="pedestrian delivery bicycle" speed="3.65" length="3.23" shape="938.05,422.54 938.00,423.43 937.26,423.93 935.83,424.05"/>
    </edge>
    <edge id=":10083821714_0" function="internal">
        <lane id=":10083821714_0_0" index="0" disallow="tram rail_urban rail rail_electric rail_fast ship container cable_car subway aircraft wheelchair scooter drone" speed="8.33" length="3.04" shape="434.93,228.45 434.19,227.94 433.75,227.51 433.30,227.08 432.56,226.57"/>
    </edge>
    <edge id=":10083821714_1" function="internal">
        <lane id=":10083821714_1_0" index="0" disallow="tram rail_urban rail rail_electric rail_fast ship container cable_car subway aircraft wheelchair scooter drone" speed="8.33" length="3.04" width="4.00" shape="434.20,223.82 435.00,224.22 435.59,224.41 436.18,224.61 436.98,225.01"/>
    </edge>
    <edge id=":10083827716_0" function="internal">
        <lane id=":10083827716_0_0" index="0" disallow="tram rail_urban rail rail_electric rail_fast ship container cable_car subway aircraft wheelchair scooter drone" speed="8.33" length="3.24" width="4.00" shape="492.97,263.93 492.26,263.33 491.93,262.72 491.61,262.12 490.90,261.52"/>
    </edge>
    <edge id=":10083827716_1" function="internal">
        <lane id=":10083827716_1_0" index="0" disallow="tram rail_urban rail rail_electric rail_fast ship container cable_car subway aircraft wheelchair scooter drone" speed="8.33" length="3.23" width="6.10" shape="492.89,258.05 493.77,258.37 494.46,258.35 495.14,258.33 496.02,258.64"/>
    </edge>
    <edge id=":10188353045_0" function="internal">
        <lane id=":10188353045_0_0" index="0" allow="pedestrian delivery bicycle" speed="3.65" length="4.67" shape="1061.79,219.00 1061.28,217.66 1061.41,216.77 1062.20,216.35 1063.64,216.39"/>
    </edge>
    <edge id=":10242249291_0" function="internal">
        <lane id=":10242249291_0_0" index="0" disallow="tram rail_urban rail rail_electric rail_fast ship container cable_car subway aircraft wheelchair scooter drone" speed="8.33" length="0.10" shape="268.33,290.51 268.33,290.51"/>
    </edge>
    <edge id=":10555616512_0" function="internal">
        <lane id=":10555616512_0_0" index="0" allow="pedestrian delivery bicycle" speed="5.56" length="4.99" shape="662.22,385.10 659.24,389.09"/>
    </edge>
    <edge id=":10555616512_1" function="internal">
        <lane id=":10555616512_1_0" index="0" allow="pedestrian delivery bicycle" speed="3.65" length="4.68" shape="662.22,385.10 660.86,385.56 659.98,385.39 659.59,384.58 659.69,383.14"/>
    </edge>
    <edge id=":10555616512_2" function="internal">
        <lane id=":10555616512_2_0" index="0" allow="pedestrian delivery bicycle" speed="5.56" length="5.00" shape="656.70,387.15 659.69,383.14"/>
    </edge>
    <edge id=":10555616512_3" function="internal">
        <lane id=":10555616512_3_0" index="0" allow="pedestrian delivery bicycle" speed="3.65" length="4.67" shape="656.70,387.15 658.06,386.68 658.94,386.85 659.34,387.65 659.24,389.09"/>
    </edge>
    <edge id=":10555616513_0" function="internal">
        <lane id=":10555616513_0_0" index="0" allow="pedestrian delivery bicycle" speed="5.56" length="5.00" shape="604.46,346.45 601.43,350.42"/>
    </edge>
    <edge id=":10555616513_1" function="internal">
        <lane id=":10555616513_1_0" index="0" allow="pedestrian delivery bicycle" speed="3.65" length="1.44" shape="604.46,346.45 603.10,346.94"/>
    </edge>
    <edge id=":10555616513_4" function="internal">
        <lane id=":10555616513_4_0" index="0" allow="pedestrian delivery bicycle" speed="3.65" length="3.23" shape="603.10,346.94 602.22,346.78 601.82,345.98 601.89,344.54"/>
    </edge>
    <edge id=":10555616513_2" function="internal">
        <lane id=":10555616513_2_0" index="0" allow="pedestrian delivery bicycle" speed="5.56" length="5.00" shape="598.86,348.51 601.89,344.54"/>
    </edge>
    <edge id=":10555616513_3" function="internal">
        <lane id=":10555616513_3_0" index="0" allow="pedestrian delivery bicycle" speed="3.65" length="1.44" shape="598.86,348.51 600.21,348.02"/>
    </edge>
    <edge id=":10555616513_5" function="internal">
        <lane id=":10555616513_5_0" index="0" allow="pedestrian delivery bicycle" speed="3.65" length="3.23" shape="600.21,348.02 601.10,348.18 601.50,348.98 601.43,350.42"/>
    </edge>
    <edge id=":10651746550_0" function="internal">
        <lane id=":10651746550_0_0" index="0" disallow="pedestrian tram rail_urban rail rail_electric rail_fast ship container cable_car subway aircraft wheelchair scooter drone" speed="13.89" length="8.08" shape="950.12,289.18 948.16,287.79 946.61,287.14 945.07,286.46 943.18,285.00"/>
        <lane id=":10651746550_0_1" index="1" disallow="pedestrian tram rail_urban rail rail_electric rail_fast ship container cable_car subway aircraft wheelchair scooter drone" speed="13.89" length="8.08" shape="952.23,286.77 950.30,285.41 948.77,284.78 947.25,284.12 945.39,282.69"/>
    </edge>
    <edge id=":10731260254_0" function="internal">
        <lane id=":10731260254_0_0" index="0" allow="subway" speed="19.44" length="5.00" shape="1145.07,153.21 1140.50,151.17"/>
    </edge>
    <edge id=":10760401259_0" function="internal">
        <lane id=":10760401259_0_0" index="0" allow="pedestrian delivery bicycle" speed="3.65" length="4.67" shape="979.22,551.85 977.96,552.55 977.06,552.53 976.54,551.80 976.39,550.37"/>
    </edge>
    <edge id=":10774556443_0" function="internal">
        <lane id=":10774556443_0_0" index="0" allow="pedestrian delivery bicycle" speed="3.65" length="4.67" shape="280.04,508.93 279.62,507.55 279.83,506.68 280.64,506.32 282.08,506.47"/>
    </edge>
    <edge id=":10774556452_0" function="internal">
        <lane id=":10774556452_0_0" index="0" allow="pedestrian delivery bicycle" speed="3.65" length="4.67" shape="213.99,410.53 212.57,410.30 211.87,409.74 211.90,408.84 212.66,407.62"/>
    </edge>
    <edge id=":10774571171_0" function="internal">
        <lane id=":10774571171_0_0" index="0" allow="pedestrian delivery bicycle" speed="3.65" length="4.67" shape="256.41,367.45 257.43,366.42 258.29,366.18 259.00,366.72 259.56,368.05"/>
    </edge>
    <edge id=":11204975431_0" function="internal">
        <lane id=":11204975431_0_0" index="0" allow="tram" speed="9.03" length="3.20" shape="1044.37,361.01 1047.20,362.51"/>
    </edge>
    <edge id=":11205042487_0" function="internal">
        <lane id=":11205042487_0_0" index="0" disallow="tram rail_urban rail rail_electric rail_fast ship container cable_car subway aircraft wheelchair scooter drone" speed="8.33" length="5.17" shape="268.20,291.20 267.81,292.68 267.40,293.65 267.01,294.63 266.67,296.12"/>
    </edge>
    <edge id=":11205042495_0" function="internal">
        <lane id=":11205042495_0_0" index="0" allow="tram" speed="6.25" length="0.10" shape="417.35,301.12 417.35,301.12"/>
    </edge>
    <edge id=":11205080693_0" function="internal">
        <lane id=":11205080693_0_0" index="0" allow="tram" speed="4.17" length="3.01" shape="421.03,302.66 423.69,304.08"/>
    </edge>
    <edge id=":11205080693_1" function="internal">
        <lane id=":11205080693_1_0" index="0" disallow="tram rail_urban rail rail_electric rail_fast ship container cable_car subway aircraft wheelchair scooter drone" speed="8.33" length="2.98" shape="420.96,302.86 423.75,303.90"/>
    </edge>
    <edge id=":11211331629_0" function="internal">
        <lane id=":11211331629_0_0" index="0" allow="tram" speed="8.33" length="3.03" shape="170.48,262.21 173.45,262.81"/>
    </edge>
    <edge id=":11211331629_1" function="internal">
        <lane id=":11211331629_1_0" index="0" disallow="tram rail_urban rail rail_electric rail_fast ship container cable_car subway aircraft wheelchair scooter drone" speed="8.33" length="2.97" shape="170.48,262.51 173.45,262.50"/>
    </edge>
    <edge id=":11367064302_0" function="internal">
        <lane id=":11367064302_0_0" index="0" allow="pedestrian delivery bicycle" speed="3.65" length="4.67" shape="756.21,562.86 757.28,563.83 757.55,564.69 757.04,565.42 755.73,566.03"/>
    </edge>
    <edge id=":11420685793_0" function="internal">
        <lane id=":11420685793_0_0" index="0" disallow="tram rail_urban rail rail_electric rail_fast ship container cable_car subway aircraft wheelchair scooter drone" speed="8.33" length="5.17" shape="431.22,185.01 430.70,190.16"/>
    </edge>
    <edge id=":11420685793_1" function="internal">
        <lane id=":11420685793_1_0" index="0" disallow="tram rail_urban rail rail_electric rail_fast ship container cable_car subway aircraft wheelchair scooter drone" speed="8.33" length="5.17" shape="427.52,189.84 428.04,184.69"/>
    </edge>
    <edge id=":11420685796_0" function="internal">
        <lane id=":11420685796_0_0" index="0" disallow="tram rail_urban rail rail_electric rail_fast ship container cable_car subway aircraft wheelchair scooter drone" speed="8.33" length="5.03" shape="433.22,164.96 432.72,169.97"/>
    </edge>
    <edge id=":11420685796_1" function="internal">
        <lane id=":11420685796_1_0" index="0" disallow="tram rail_urban rail rail_electric rail_fast ship container cable_car subway aircraft wheelchair scooter drone" speed="8.33" length="5.04" shape="429.53,169.66 430.03,164.65"/>
    </edge>
    <edge id=":11427300539_0" function="internal">
        <lane id=":11427300539_0_0" index="0" allow="rail_urban" speed="16.67" length="0.30" shape="423.25,523.11 423.49,523.29"/>
    </edge>
    <edge id=":1157325166_0" function="internal">
        <lane id=":1157325166_0_0" index="0" disallow="pedestrian tram rail_urban rail rail_electric rail_fast ship container cable_car subway aircraft wheelchair scooter drone" speed="13.89" length="5.02" shape="951.48,421.96 954.55,418.00"/>
        <lane id=":1157325166_0_1" index="1" disallow="pedestrian tram rail_urban rail rail_electric rail_fast ship container cable_car subway aircraft wheelchair scooter drone" speed="13.89" length="5.02" shape="954.00,423.93 957.08,419.95"/>
    </edge>
    <edge id=":1157325174_0" function="internal">
        <lane id=":1157325174_0_0" index="0" disallow="pedestrian tram rail_urban rail rail_electric rail_fast ship container cable_car subway aircraft wheelchair scooter drone" speed="13.89" length="9.30" shape="971.19,429.60 965.50,436.93"/>
        <lane id=":1157325174_0_1" index="1" disallow="pedestrian tram rail_urban rail rail_electric rail_fast ship container cable_car subway aircraft wheelchair scooter drone" speed="13.89" length="9.30" shape="968.67,427.63 962.95,434.99"/>
    </edge>
    <edge id=":11688908868_0" function="internal">
        <lane id=":11688908868_0_0" index="0" allow="delivery bicycle" speed="5.03" length="5.02" shape="976.57,384.30 977.76,384.99 978.88,385.13 979.93,384.72 980.92,383.76"/>
    </edge>
    <edge id=":11688908868_1" function="internal">
        <lane id=":11688908868_1_0" index="0" allow="pedestrian delivery bicycle" speed="3.65" length="4.67" shape="976.57,384.30 977.01,385.67 976.83,386.54 976.02,386.92 974.58,386.80"/>
    </edge>
    <edge id=":11688908868_2" function="internal">
        <lane id=":11688908868_2_0" index="0" allow="delivery bicycle" speed="5.08" length="5.05" shape="975.18,391.21 975.85,390.02 975.97,388.89 975.55,387.82 974.58,386.80"/>
    </edge>
    <edge id=":11688908868_3" function="internal">
        <lane id=":11688908868_3_0" index="0" disallow="pedestrian tram rail_urban rail rail_electric rail_fast ship container cable_car subway aircraft wheelchair scooter drone" speed="13.89" length="9.40" shape="975.18,391.21 980.92,383.76"/>
        <lane id=":11688908868_3_1" index="1" disallow="pedestrian tram rail_urban rail rail_electric rail_fast ship container cable_car subway aircraft wheelchair scooter drone" speed="13.89" length="9.40" shape="977.72,393.16 983.46,385.71"/>
    </edge>
    <edge id=":11688980269_0" function="internal">
        <lane id=":11688980269_0_0" index="0" allow="pedestrian delivery bicycle" speed="5.56" length="4.81" shape="972.94,385.50 969.17,382.52"/>
    </edge>
    <edge id=":11688980269_1" function="internal">
        <lane id=":11688980269_1_0" index="0" allow="pedestrian delivery bicycle" speed="3.65" length="1.44" shape="972.94,385.50 972.49,384.13"/>
    </edge>
    <edge id=":11688980269_4" function="internal">
        <lane id=":11688980269_4_0" index="0" allow="pedestrian delivery bicycle" speed="3.65" length="3.23" shape="972.49,384.13 972.67,383.25 973.48,382.87 974.92,382.99"/>
    </edge>
    <edge id=":11688980269_2" function="internal">
        <lane id=":11688980269_2_0" index="0" allow="pedestrian delivery bicycle" speed="5.56" length="4.81" shape="971.15,380.01 974.92,382.99"/>
    </edge>
    <edge id=":11688980269_3" function="internal">
        <lane id=":11688980269_3_0" index="0" allow="pedestrian delivery bicycle" speed="3.65" length="1.44" shape="971.15,380.01 971.60,381.38"/>
    </edge>
    <edge id=":11688980269_5" function="internal">
        <lane id=":11688980269_5_0" index="0" allow="pedestrian delivery bicycle" speed="3.65" length="3.23" shape="971.60,381.38 971.41,382.26 970.60,382.63 969.17,382.52"/>
    </edge>
    <edge id=":11746902191_0" function="internal">
        <lane id=":11746902191_0_0" index="0" disallow="tram rail_urban rail rail_electric rail_fast ship container cable_car subway aircraft wheelchair scooter drone" speed="6.71" length="4.32" shape="264.10,325.29 264.19,326.04 264.56,326.91 265.22,327.89 266.17,328.98"/>
    </edge>
    <edge id=":11747441369_0" function="internal">
        <lane id=":11747441369_0_0" index="0" disallow="tram rail_urban rail rail_electric rail_fast ship container cable_car subway aircraft wheelchair scooter drone" speed="8.33" length="5.00" shape="398.58,358.40 402.59,361.39"/>
    </edge>
    <edge id=":11918695311_0" function="internal">
        <lane id=":11918695311_0_0" index="0" allow="tram" speed="9.72" length="1.00" shape="913.48,484.98 912.88,485.77"/>
    </edge>
    <edge id=":1217651535_0" function="internal">
        <lane id=":1217651535_0_0" index="0" allow="pedestrian delivery bicycle" speed="3.89" length="7.59" shape="363.46,484.06 361.95,485.48 360.34,486.10 358.63,485.90 356.81,484.90"/>
    </edge>
    <edge id=":1217651535_1" function="internal">
        <lane id=":1217651535_1_0" index="0" allow="pedestrian delivery bicycle" speed="3.89" length="2.53" shape="358.74,482.34 359.35,482.68 359.92,482.74 360.45,482.54 360.96,482.06"/>
    </edge>
    <edge id=":1217651537_0" function="internal">
        <lane id=":1217651537_0_0" index="0" allow="pedestrian delivery bicycle" speed="3.89" length="0.29" shape="336.25,469.35 336.01,469.18"/>
    </edge>
    <edge id=":1217651537_1" function="internal">
        <lane id=":1217651537_1_0" index="0" allow="pedestrian delivery bicycle" speed="3.89" length="0.31" shape="337.94,466.62 338.18,466.80"/>
    </edge>
    <edge id=":12292191732_0" function="internal">
        <lane id=":12292191732_0_0" index="0" allow="tram" speed="9.72" length="0.10" shape="897.86,511.06 897.86,511.06"/>
    </edge>
    <edge id=":12292191733_0" function="internal">
        <lane id=":12292191733_0_0" index="0" allow="tram" speed="9.72" length="0.29" shape="915.94,486.73 916.12,486.51"/>
    </edge>
    <edge id=":12292191738_0" function="internal">
        <lane id=":12292191738_0_0" index="0" allow="tram" speed="9.72" length="0.30" shape="1114.03,414.97 1113.80,414.78"/>
    </edge>
    <edge id=":12292191759_0" function="internal">
        <lane id=":12292191759_0_0" index="0" allow="tram" speed="4.86" length="0.30" shape="1114.82,412.00 1115.05,412.18"/>
    </edge>
    <edge id=":12292191760_0" function="internal">
        <lane id=":12292191760_0_0" index="0" allow="tram" speed="9.72" length="0.10" shape="894.64,510.25 894.64,510.25"/>
    </edge>
    <edge id=":12357719412_0" function="internal">
        <lane id=":12357719412_0_0" index="0" disallow="tram rail_urban rail rail_electric rail_fast ship container cable_car subway aircraft wheelchair scooter drone" speed="5.56" length="0.30" width="5.00" shape="652.93,342.04 652.78,342.29"/>
    </edge>
    <edge id=":12357719412_1" function="internal">
        <lane id=":12357719412_1_0" index="0" disallow="tram rail_urban rail rail_electric rail_fast ship container cable_car subway aircraft wheelchair scooter drone" speed="5.56" length="0.30" width="5.00" shape="648.52,339.67 648.68,339.42"/>
    </edge>
    <edge id=":12504199700_0" function="internal">
        <lane id=":12504199700_0_0" index="0" allow="tram" speed="8.33" length="5.07" shape="253.96,270.52 259.01,270.94"/>
    </edge>
    <edge id=":12504211306_0" function="internal">
        <lane id=":12504211306_0_0" index="0" disallow="tram rail_urban rail rail_electric rail_fast ship container cable_car subway aircraft wheelchair scooter drone" speed="8.33" length="5.00" width="3.20" shape="269.14,282.15 268.66,287.13"/>
    </edge>
    <edge id=":12504211308_0" function="internal">
        <lane id=":12504211308_0_0" index="0" disallow="tram rail_urban rail rail_electric rail_fast ship container cable_car subway aircraft wheelchair scooter drone" speed="8.33" length="5.00" shape="254.13,268.76 259.12,269.18"/>
    </edge>
    <edge id=":1371317063_0" function="internal">
        <lane id=":1371317063_0_0" index="0" disallow="tram rail_urban rail rail_electric rail_fast ship container cable_car subway aircraft wheelchair scooter drone" speed="8.33" length="5.31" width="4.00" shape="476.80,253.39 472.24,250.68"/>
    </edge>
    <edge id=":1371317063_1" function="internal">
        <lane id=":1371317063_1_0" index="0" disallow="tram rail_urban rail rail_electric rail_fast ship container cable_car subway aircraft wheelchair scooter drone" speed="8.33" length="5.26" width="4.00" shape="474.28,247.24 478.80,249.92"/>
    </edge>
    <edge id=":1395098667_0" function="internal">
        <lane id=":1395098667_0_0" index="0" allow="tram" speed="4.86" length="3.08" shape="1010.27,361.06 1007.75,362.84"/>
    </edge>
    <edge id=":1449754450_0" function="internal">
        <lane id=":1449754450_0_0" index="0" allow="pedestrian delivery bicycle" speed="4.93" length="5.13" shape="419.22,262.24 417.83,261.89 416.72,262.09 415.86,262.85 415.27,264.15"/>
    </edge>
    <edge id=":1449754450_1" function="internal">
        <lane id=":1449754450_1_0" index="0" allow="pedestrian delivery bicycle" speed="5.56" length="9.44" shape="419.22,262.24 410.48,258.67"/>
    </edge>
    <edge id=":1449754450_2" function="internal">
        <lane id=":1449754450_2_0" index="0" allow="pedestrian delivery bicycle" speed="3.65" length="4.67" shape="419.22,262.24 418.41,261.04 418.34,260.15 419.02,259.56 420.43,259.28"/>
    </edge>
    <edge id=":1449754450_3" function="internal">
        <lane id=":1449754450_3_0" index="0" allow="pedestrian delivery bicycle" speed="5.56" length="9.44" shape="411.69,255.71 420.43,259.28"/>
    </edge>
    <edge id=":1449754450_4" function="internal">
        <lane id=":1449754450_4_0" index="0" allow="pedestrian delivery bicycle" speed="5.56" length="10.22" shape="411.69,255.71 413.94,257.06 415.28,258.92 415.73,261.28 415.27,264.15"/>
    </edge>
    <edge id=":1449754450_5" function="internal">
        <lane id=":1449754450_5_0" index="0" allow="pedestrian delivery bicycle" speed="3.65" length="4.67" shape="411.69,255.71 412.50,256.90 412.57,257.79 411.90,258.38 410.48,258.67"/>
    </edge>
    <edge id=":1449754450_6" function="internal">
        <lane id=":1449754450_6_0" index="0" allow="pedestrian delivery bicycle" speed="5.41" length="5.45" shape="412.20,263.26 412.47,261.67 412.27,260.37 411.61,259.37 410.48,258.67"/>
    </edge>
    <edge id=":1449754450_7" function="internal">
        <lane id=":1449754450_7_0" index="0" allow="pedestrian delivery bicycle" speed="5.56" length="10.70" shape="412.20,263.26 413.43,260.55 415.21,258.98 417.54,258.55 420.43,259.28"/>
    </edge>
    <edge id=":1449754450_8" function="internal">
        <lane id=":1449754450_8_0" index="0" allow="pedestrian delivery bicycle" speed="3.65" length="4.67" shape="412.20,263.26 413.30,262.33 414.18,262.17 414.84,262.77 415.27,264.15"/>
    </edge>
    <edge id=":1457124706_0" function="internal">
        <lane id=":1457124706_0_0" index="0" allow="pedestrian delivery bicycle" speed="3.65" length="4.67" shape="399.39,208.66 400.31,207.54 401.14,207.22 401.90,207.70 402.58,208.98"/>
    </edge>
    <edge id=":1457124739_0" function="internal">
        <lane id=":1457124739_0_0" index="0" allow="pedestrian delivery bicycle" speed="5.56" length="8.81" shape="399.73,254.28 397.70,253.12 396.33,251.57 395.60,249.63 395.53,247.30"/>
    </edge>
    <edge id=":1457124739_1" function="internal">
        <lane id=":1457124739_1_0" index="0" allow="pedestrian delivery bicycle" speed="3.65" length="4.67" shape="399.73,254.28 398.92,253.09 398.85,252.19 399.53,251.61 400.94,251.32"/>
    </edge>
    <edge id=":1457124739_2" function="internal">
        <lane id=":1457124739_2_0" index="0" allow="pedestrian delivery bicycle" speed="5.44" length="4.67" shape="398.71,247.62 398.75,248.86 399.14,249.88 399.87,250.70 400.94,251.32"/>
    </edge>
    <edge id=":1457124739_3" function="internal">
        <lane id=":1457124739_3_0" index="0" allow="pedestrian delivery bicycle" speed="3.65" length="4.67" shape="398.71,247.62 397.80,248.73 396.96,249.05 396.21,248.57 395.53,247.30"/>
    </edge>
    <edge id=":1457124764_0" function="internal">
        <lane id=":1457124764_0_0" index="0" allow="pedestrian delivery bicycle" speed="3.65" length="4.67" shape="441.09,267.72 441.90,268.91 441.97,269.80 441.30,270.39 439.88,270.68"/>
    </edge>
    <edge id=":1473258664_0" function="internal">
        <lane id=":1473258664_0_0" index="0" allow="pedestrian delivery bicycle" speed="4.17" length="6.45" shape="672.20,376.57 670.92,376.07 669.61,376.28 668.27,377.19 666.88,378.81"/>
    </edge>
    <edge id=":1473258664_1" function="internal">
        <lane id=":1473258664_1_0" index="0" disallow="tram rail_urban rail rail_electric rail_fast ship container cable_car subway aircraft wheelchair scooter drone" speed="2.78" length="9.50" width="6.50" shape="672.20,376.57 664.27,371.34"/>
    </edge>
    <edge id=":1473258664_2" function="internal">
        <lane id=":1473258664_2_0" index="0" disallow="tram rail_urban rail rail_electric rail_fast ship container cable_car subway aircraft wheelchair scooter drone" speed="2.78" length="9.68" width="6.50" shape="667.77,365.86 675.85,371.19"/>
    </edge>
    <edge id=":1473258664_3" function="internal">
        <lane id=":1473258664_3_0" index="0" allow="pedestrian delivery bicycle" speed="4.17" length="5.22" shape="667.77,365.86 669.86,368.04 670.27,370.19"/>
    </edge>
    <edge id=":1473258664_7" function="internal">
        <lane id=":1473258664_7_0" index="0" allow="pedestrian delivery bicycle" speed="4.17" length="9.46" shape="670.27,370.19 670.41,370.93 669.42,374.52 666.88,378.81"/>
    </edge>
    <edge id=":1473258664_4" function="internal">
        <lane id=":1473258664_4_0" index="0" allow="pedestrian delivery bicycle" speed="4.17" length="6.64" shape="664.12,377.17 665.22,375.28 665.61,373.67 665.29,372.36 664.27,371.34"/>
    </edge>
    <edge id=":1473258664_5" function="internal">
        <lane id=":1473258664_5_0" index="0" allow="pedestrian delivery bicycle" speed="4.17" length="14.56" shape="664.12,377.17 667.37,373.27 670.40,370.97 673.23,370.28 675.85,371.19"/>
    </edge>
    <edge id=":1473258664_6" function="internal">
        <lane id=":1473258664_6_0" index="0" allow="pedestrian delivery bicycle" speed="3.65" length="4.69" shape="664.12,377.17 665.43,376.55 666.32,376.61 666.81,377.37 666.88,378.81"/>
    </edge>
    <edge id=":1473258672_0" function="internal">
        <lane id=":1473258672_0_0" index="0" allow="pedestrian delivery bicycle" speed="5.56" length="10.13" shape="582.29,381.34 580.33,379.38 579.46,377.26 579.69,374.98 581.01,372.54"/>
    </edge>
    <edge id=":1473258672_1" function="internal">
        <lane id=":1473258672_1_0" index="0" allow="pedestrian delivery bicycle" speed="3.65" length="4.67" shape="582.29,381.34 581.81,379.98 581.97,379.10 582.77,378.70 584.21,378.78"/>
    </edge>
    <edge id=":1473258672_2" function="internal">
        <lane id=":1473258672_2_0" index="0" allow="pedestrian delivery bicycle" speed="5.05" length="4.99" shape="583.58,374.45 582.93,375.65 582.82,376.77 583.25,377.82 584.21,378.78"/>
    </edge>
    <edge id=":1473258672_3" function="internal">
        <lane id=":1473258672_3_0" index="0" allow="pedestrian delivery bicycle" speed="3.65" length="4.67" shape="583.58,374.45 582.23,374.93 581.35,374.78 580.94,373.98 581.01,372.54"/>
    </edge>
    <edge id=":1473258678_0" function="internal">
        <lane id=":1473258678_0_0" index="0" allow="pedestrian delivery bicycle" speed="5.56" length="5.29" shape="666.43,379.44 663.25,383.66"/>
    </edge>
    <edge id=":1473258678_1" function="internal">