<?xml version="1.0" encoding="UTF-8"?>

<!-- generated on 2025-03-17 09:36:49 by Eclipse SUMO polyconvert Version 1.22.0
<polyconvertConfiguration xmlns:xsi="http://www.w3.org/2001/XMLSchema-instance" xsi:noNamespaceSchemaLocation="http://sumo.dlr.de/xsd/polyconvertConfiguration.xsd">

    <input>
        <net-file value="osm.net.xml"/>
        <osm-files value="osm_bbox.osm.xml"/>
        <osm.keep-full-type value="true"/>
        <type-file value="C:\Program%20Files%20(x86)\Eclipse\Sumo\data\typemap\osmPolyconvert.typ.xml"/>
    </input>

    <output>
        <output-file value="osm.poly.xml"/>
    </output>

    <report>
        <verbose value="true"/>
    </report>

</polyconvertConfiguration>
-->

<additional xmlns:xsi="http://www.w3.org/2001/XMLSchema-instance" xsi:noNamespaceSchemaLocation="http://sumo.dlr.de/xsd/additional_file.xsd">
    <location netOffset="-712951.37,-3896907.95" convBoundary="-396.72,-557.80,5388.15,2568.09" origBoundary="-0.665429,35.187405,-0.601563,35.215316" projParameter="+proj=utm +zone=30 +ellps=WGS84 +datum=WGS84 +units=m +no_defs"/>

    <poly id="176230343" type="landuse.cemetery" color="194,194,130" fill="1" layer="-3.00" shape="868.526482,249.045137 926.409830,239.025659 960.605141,227.425194 983.779562,220.680990 1014.324993,210.470610 1042.817258,205.017771 1102.488695,213.022626 1101.199434,215.911246 1110.198068,217.589304 966.894840,449.205514 920.270929,488.249253 901.895500,518.249150 836.756831,627.147595 821.366888,616.816629 765.667777,701.841968 691.577670,652.164637 642.624391,724.741166 586.666222,686.170493 584.622065,676.665617 580.039812,675.103421 576.957432,673.299155 570.665225,677.790115 471.663289,527.033529 427.641825,448.155540 415.477053,277.894038 536.761148,268.757390 594.249413,258.848594 617.571745,258.555667 692.185967,243.768575 854.244277,219.960290 847.283414,253.493316 868.526482,249.045137"/>
    <poly id="176257687" type="landuse.cemetery" color="194,194,130" fill="1" layer="-3.00" shape="3097.729469,619.072150 3000.305896,605.312983 2999.697905,610.171156 2995.803158,609.589786 2988.196927,656.847533 2979.311499,655.414446 2973.426700,692.013362 3068.027295,706.437447 3069.305755,704.026087 3084.396132,706.584237 3097.729469,619.072150"/>
    <poly id="176257688" type="landuse.cemetery" color="194,194,130" fill="1" layer="-3.00" shape="3225.986211,794.379467 2845.382061,738.583220 2823.968158,888.415154 2863.506399,880.112695 2880.647130,878.823523 2981.529572,874.660765 2996.782118,875.757524 3012.829292,879.059891 3025.773906,884.474800 3035.945205,893.475240 3122.469839,980.420257 3136.578648,955.406020 3176.279368,935.354391 3214.052348,909.818070 3225.986211,794.379467"/>
    <poly id="176334990" type="waterway.river" color="181,209,209" fill="0" layer="-4.00" shape="-396.718838,-80.441958 -370.337459,-67.812720 -328.804308,-48.189961 -314.066446,-41.028638 -297.587704,-24.591813 -229.705733,72.945879 -189.908693,124.893883 -175.056638,149.650436 -169.329692,154.080552 -158.887313,158.299717 -116.011843,174.636467 -105.501280,184.861992 -89.229404,198.053410 -79.347633,203.635788 -50.298222,205.052006 -43.373647,201.563334 -38.443238,191.057402 -32.172750,172.391770 -27.074255,152.810614 -27.028196,140.402739 -34.423514,122.469874 -34.905790,111.991933 -28.192802,107.044287 -21.977025,102.318025 -21.616789,97.465034 -30.993045,90.917765 -36.922402,83.474901 -36.525589,76.680403 -27.557172,69.588191 -18.220741,67.377219 -4.834748,69.634686 2.484276,70.295347 8.280265,64.438197 12.856037,55.455634 16.779852,54.815459 22.758376,62.104128 25.381652,63.298012 30.628866,58.304796 36.184638,50.655028 44.541112,50.208025 48.739415,46.810612 49.382161,40.021904 49.679926,27.375768 55.858933,24.602156 61.551951,21.572922 65.664645,12.912454 67.743571,-13.077441 64.334756,-22.314593 60.010844,-25.579694 51.008223,-27.489856 44.070129,-35.045316 44.495851,-41.517255 56.413668,-49.261404 60.423350,-55.093992 57.197750,-73.661295 53.846408,-97.337212 41.607392,-138.259726 37.064027,-152.718020 38.061545,-164.126761 45.152534,-174.670589 58.399865,-197.467323 60.003823,-213.734354 56.103032,-224.525873 52.997318,-237.740505 56.149574,-247.400328 67.690305,-260.014828 73.955995,-275.361848 84.570176,-281.516185 91.580652,-278.187818 99.708683,-280.915518 119.915082,-287.742963 131.989946,-290.533071 146.131226,-290.532976 155.679461,-291.273706 167.037471,-296.122918 184.165364,-307.640034 239.260506,-343.080487 262.905641,-359.716044 273.295268,-375.276545 290.532477,-391.419297 302.674093,-398.192254 318.878929,-403.004741 342.914429,-406.811251 377.705265,-410.375207 385.599142,-413.596553 391.384099,-420.508184 406.664607,-435.964322 425.110974,-451.589959 435.306332,-458.897019 446.441598,-464.716795 477.423252,-472.499161 503.451539,-477.723360 541.732144,-484.356576 562.844966,-488.242588 582.176872,-489.251469 613.628865,-486.067283 626.804017,-485.267916 641.043362,-487.861990 657.597695,-493.953163 716.644402,-522.571449 776.043980,-552.224374 778.501789,-553.664723 801.069721,-557.804408 819.869703,-557.116067 833.765316,-554.024026 843.612855,-546.976367 858.170365,-533.335399 925.803220,-405.138094 943.658811,-374.536926 954.077167,-360.427560 962.961550,-355.433695 978.763115,-351.652580 994.836033,-347.787325 1008.547415,-338.461521 1016.622634,-328.536435 1027.675732,-300.049425 1036.803070,-274.127493 1047.373637,-245.662960 1049.240281,-230.201831 1049.363888,-214.626540 1051.407691,-197.796001 1054.980664,-185.135935 1068.769316,-156.750625 1080.469112,-134.819026 1081.641894,-123.925027 1079.471103,-113.432012 1070.550590,-87.615105 1068.005061,-72.835510 1069.607173,-49.278107 1070.647621,-31.250363 1068.533036,-14.274003 1062.895482,-3.208141 1050.686660,18.723913 1045.749099,29.473362 1044.081708,37.947112 1046.812612,48.067715 1050.252356,56.340400 1056.970462,61.605027 1065.443082,66.267407 1073.648490,81.068271 1075.147614,90.105307 1074.857012,121.642764 1078.235827,133.643402 1084.942248,140.938959 1095.824248,145.813774 1110.155450,149.316209 1126.730509,151.173571 1161.204896,148.981577 1186.599655,150.071069 1201.812344,147.512073 1215.896996,141.030521 1227.123975,132.871921 1261.166035,119.315421 1308.850854,107.558383 1338.010255,104.353210 1350.719268,104.410094 1361.149665,107.576333 1382.155812,118.540727 1395.929810,123.639826 1405.683458,124.603506 1415.977192,124.692045 1426.326418,121.285609 1460.533880,109.609547 1471.817283,107.923507 1482.087899,108.988317 1529.853862,123.417785 1544.980319,126.040722 1568.651624,127.578790 1583.292142,126.871552 1599.476927,124.824640 1609.002066,125.050560 1617.243553,127.920996 1660.700843,150.362633 1674.757167,156.612106 1682.573621,157.041752 1688.715062,155.489266 1697.866634,148.802593 1719.891375,127.193040 1735.630291,114.757848 1747.251119,106.919987 1757.860450,102.543345 1772.333359,100.456104 1847.395370,98.830625 1887.294743,96.126418 1896.854440,94.899437 1904.511765,91.673784 1916.928519,85.242460 1923.055621,82.380055 1933.358748,80.926583 1944.549819,83.134825 1953.951096,90.495090 2004.012835,151.699120 2012.876340,159.446255 2028.563437,167.610852 2058.229151,184.132612 2076.748038,196.970871 2102.145376,218.263977 2127.909957,244.416349 2141.234727,259.573134 2171.412468,306.264663 2212.970413,367.101325 2226.136083,380.889244 2235.892223,389.778910 2246.087801,394.749837 2278.071657,404.168409 2340.261174,420.000025 2374.086825,425.910959 2385.259964,428.851923 2392.951144,434.151883 2396.742156,441.390196 2398.896154,451.564191 2401.101981,471.806637 2406.904454,494.820791 2414.129940,509.344444 2422.030036,516.580719 2439.864455,526.739641 2449.484487,533.295435 2456.201686,540.847656 2495.229291,605.277315 2501.613423,622.600282 2506.698678,645.109069 2514.524310,685.675402 2518.508632,695.116085 2522.515819,699.007575 2529.085365,700.129747 2543.470639,701.693432 2555.881000,703.931549 2570.604006,711.585843 2578.934054,721.030222 2585.895757,736.280330 2584.695414,745.741785 2578.012757,759.689976 2572.255048,777.644929 2573.188581,787.789907 2578.317422,798.134760 2590.455331,811.798914 2609.483591,823.440717 2628.112652,831.188225 2643.064051,839.569569 2679.179777,862.085716 2709.761710,881.306700 2721.288122,886.598547 2731.030411,891.059795 2747.534659,895.826623 2769.188324,899.750655 2785.068363,900.129459 2806.357872,898.694930 2836.530684,893.809570 2880.712481,885.629086 2904.463363,883.754048 2948.407478,885.535583 3012.603063,888.533485 3022.561151,891.202086 3030.960250,897.729402 3041.897005,910.155686 3124.718677,1003.361238 3143.530369,1029.361875"/>
    <poly id="176515573" type="amenity.university" color="237,199,199" fill="0" layer="-2.00" shape="1736.748187,1232.939072 1786.310611,1224.392811"/>
    <poly id="176714611" type="landuse.industrial" color="209,209,204" fill="1" layer="-3.00" shape="2163.392879,676.784312 2158.189689,677.204431 2154.500431,678.326526 2098.081931,748.998061 2139.837953,781.124979 2145.116011,777.554391 2151.374615,778.724393 2180.194994,761.362194 2182.021231,753.913505 2183.522072,752.484078 2185.187490,754.477198 2188.657656,752.606241 2195.780122,753.463839 2201.489739,747.073186 2201.810803,743.917480 2177.626605,682.039922 2174.032201,678.791082 2168.273546,676.900398 2163.392879,676.784312"/>
    <poly id="176714626" type="amenity.school" color="237,199,199" fill="1" layer="-2.00" shape="2199.784496,562.149057 2304.042507,609.582520 2299.871534,628.263539 2263.406205,671.671500 2206.649693,728.171476 2148.416341,584.768885 2199.784496,562.149057"/>
    <poly id="176714631" type="amenity.parking" color="184,184,179" fill="1" layer="-1.00" shape="2034.110662,746.500436 2047.675998,728.897310 2105.570551,775.071133 2088.508593,791.825175 2034.110662,746.500436"/>
    <poly id="176714646" type="amenity.school" color="237,199,199" fill="1" layer="-2.00" shape="2290.148639,466.379650 2279.357464,504.438180 2327.348902,516.923958 2328.402340,510.178361 2337.261109,505.083674 2322.945105,479.924540 2317.507449,474.878062 2311.058619,471.738828 2290.148639,466.379650"/>
    <poly id="176714652" type="building.train_station" color="255,230,230" fill="1" layer="-1.00" shape="2034.819161,757.705512 2028.083427,766.258459 2072.836863,803.373361 2080.519474,795.231440 2034.819161,757.705512"/>
    <poly id="176714667" type="amenity.school" color="237,199,199" fill="1" layer="-2.00" shape="2198.425637,495.941818 2211.078910,446.617173 2290.148639,466.379650 2279.357464,504.438180 2265.506982,511.400947 2198.425637,495.941818"/>
    <poly id="176719390" type="amenity.school" color="237,199,199" fill="1" layer="-2.00" shape="993.842984,663.449773 1055.832889,682.309053 1057.087950,685.868345 1012.412844,761.563335 956.182756,727.623343 993.842984,663.449773"/>
    <poly id="176719397" type="amenity.school" color="237,199,199" fill="1" layer="-2.00" shape="1262.013058,772.943820 1214.525293,760.753095 1211.191767,762.250267 1199.009570,812.319626 1209.462024,814.520625 1208.213412,820.695604 1230.215242,825.711882 1254.561185,785.609293 1258.758409,786.496760 1262.013058,772.943820"/>
    <poly id="176719398" type="amenity.school" color="237,199,199" fill="1" layer="-2.00" shape="1237.671112,1016.364788 1161.002615,931.115287 1166.316669,923.693534 1198.037939,894.520734 1190.181079,885.821475 1209.346381,870.958175 1207.347927,862.630721 1220.849235,849.575707 1322.941909,965.351980 1237.671112,1016.364788"/>
    <poly id="176719416" type="amenity.school" color="237,199,199" fill="1" layer="-2.00" shape="1262.708467,671.267856 1302.510780,682.921556 1316.882363,633.148347 1315.858360,629.838673 1282.726718,620.418518 1278.276885,622.499693 1262.708467,671.267856"/>
    <poly id="176719469" type="amenity.school" color="237,199,199" fill="1" layer="-2.00" shape="945.071280,720.922927 911.384093,771.216544 979.928768,817.601344 1012.412844,761.563335 956.182756,727.623343 945.071280,720.922927"/>
    <poly id="176719471" type="amenity.college" color="237,199,199" fill="1" layer="-2.00" shape="1060.966341,883.495327 1003.238586,968.737665 765.123821,808.138478 808.162046,744.934884 887.342835,796.187654 893.037544,787.687017 894.248881,783.464612 920.166905,802.802075 979.307649,843.858809 1060.966341,883.495327"/>
    <poly id="176719476" type="amenity.school" color="237,199,199" fill="1" layer="-2.00" shape="1302.510780,682.921556 1293.726456,713.369932 1289.019249,715.933375 1256.495360,706.638684 1254.754192,702.834759 1262.708467,671.267856 1302.510780,682.921556"/>
    <poly id="176719497" type="amenity.school" color="237,199,199" fill="1" layer="-2.00" shape="1104.140938,1010.528176 1161.002615,931.115287 1237.671112,1016.364788 1172.113806,1060.552804 1104.140938,1010.528176"/>
    <poly id="176727010" type="amenity.place_of_worship" color="237,199,199" fill="1" layer="-1.00" shape="1436.281134,999.749103 1424.784450,1022.008324 1450.752740,1035.310562 1457.713238,1021.856633 1464.167069,1025.161879 1468.703313,1016.356621 1436.281134,999.749103"/>
    <poly id="176727010#1" type="building.mosque" color="255,230,230" fill="1" layer="-1.00" shape="1436.281134,999.749103 1424.784450,1022.008324 1450.752740,1035.310562 1457.713238,1021.856633 1464.167069,1025.161879 1468.703313,1016.356621 1436.281134,999.749103"/>
    <poly id="176727793" type="landuse.commercial" color="209,209,204" fill="1" layer="-3.00" shape="1274.084045,892.203926 1208.213412,820.695604 1230.215242,825.711882 1254.561185,785.609293 1288.200384,811.268698 1291.517049,806.252653 1323.442953,829.618442 1327.022830,823.876087 1370.815169,851.663288 1373.136503,837.133711 1397.372140,842.458628 1430.263549,849.675899 1396.745672,984.205139 1392.727963,1000.348314 1387.012149,1004.341812 1379.881315,1005.382638 1373.804461,1005.005528 1274.084045,892.203926"/>
    <poly id="176727798" type="amenity.university" color="237,199,199" fill="1" layer="-2.00" shape="920.118113,1063.358042 854.814756,1169.333171 873.312595,1224.257238 945.907918,1262.934986 1082.865638,1176.914619 920.118113,1063.358042"/>
    <poly id="176727799" type="building.yes" color="255,230,230" fill="1" layer="-1.00" shape="1684.578710,770.564421 1665.884219,754.792495 1638.483864,787.229647 1657.397697,803.739284 1684.578710,770.564421"/>
    <poly id="176727806" type="building.yes" color="255,230,230" fill="1" layer="-1.00" shape="1604.445345,738.494850 1582.521024,775.912507 1609.036188,791.148329 1630.220249,753.446780 1604.445345,738.494850"/>
    <poly id="176727841" type="amenity.university" color="237,199,199" fill="1" layer="-2.00" shape="953.185148,1008.432509 920.118113,1063.358042 1082.865638,1176.914619 1187.466475,1113.960232 1184.849517,1110.979128 977.088587,968.862686 953.185148,1008.432509"/>
    <poly id="176728162" type="building.yes" color="255,230,230" fill="1" layer="-1.00" shape="1095.365652,1240.388079 1093.112983,1250.113298 1136.125190,1260.377308 1138.789647,1250.961529 1095.365652,1240.388079"/>
    <poly id="176728164" type="landuse.military" color="153,153,92" fill="1" layer="-3.00" shape="1202.028405,1262.681507 1312.807661,1196.966852 1395.782001,1253.164910 1188.568085,1418.286769 1083.470353,1306.092241 1092.120113,1301.679650 1140.290510,1298.002897 1140.181947,1274.114481 1170.106131,1269.228937 1174.360194,1275.401030 1203.269698,1272.200871 1202.028405,1262.681507"/>
    <poly id="176728168" type="building.yes" color="255,230,230" fill="1" layer="-1.00" shape="1152.584077,1172.016432 1152.828515,1180.546535 1230.659975,1175.829943 1230.166263,1167.826698 1152.584077,1172.016432"/>
    <poly id="176728175" type="building.yes" color="255,230,230" fill="1" layer="-1.00" shape="1229.793417,1204.723294 1282.148937,1202.078731 1281.563358,1193.340744 1229.263207,1195.953327 1229.793417,1204.723294"/>
    <poly id="176728178" type="building.yes" color="255,230,230" fill="1" layer="-1.00" shape="1117.893201,1224.694080 1115.404036,1234.402597 1135.808330,1239.514091 1138.303295,1229.561529 1117.893201,1224.694080"/>
    <poly id="176728179" type="building.yes" color="255,230,230" fill="1" layer="-1.00" shape="1056.171545,1251.636402 1053.729910,1262.034217 1096.419913,1272.823184 1099.403175,1262.637987 1056.171545,1251.636402"/>
    <poly id="176728181" type="building.yes" color="255,230,230" fill="1" layer="-1.00" shape="1079.478196,1226.115617 1058.814704,1239.267671 1041.047274,1249.768960 1035.636556,1240.883521 1073.570044,1217.462567 1079.478196,1226.115617"/>
    <poly id="176728184" type="building.yes" color="255,230,230" fill="1" layer="-1.00" shape="1167.138768,1226.414990 1168.178043,1235.618779 1219.588694,1232.085744 1219.094201,1222.961444 1167.138768,1226.414990"/>
    <poly id="176728187" type="building.yes" color="255,230,230" fill="1" layer="-1.00" shape="1127.341593,1184.627055 1089.531879,1208.195024 1095.045614,1216.960842 1132.855310,1193.392897 1127.341593,1184.627055"/>
    <poly id="176733483" type="amenity.college" color="237,199,199" fill="1" layer="-2.00" shape="1384.085865,1385.703000 1417.416086,1422.743752 1409.817153,1444.695797 1466.310219,1463.061756 1476.077719,1432.647934 1419.487040,1356.140972 1384.085865,1385.703000"/>
    <poly id="176887838" type="leisure.pitch" color="207,245,201" fill="1" layer="-2.00" shape="2309.109486,922.263994 2300.930935,946.643544 2343.570518,962.254349 2351.895002,937.489822 2309.109486,922.263994"/>
    <poly id="176887849" type="amenity.place_of_worship" color="237,199,199" fill="1" layer="-1.00" shape="2487.284046,916.628224 2478.660999,943.583239 2459.164225,937.846565 2468.704251,910.258509 2487.284046,916.628224"/>
    <poly id="176892541" type="building.yes" color="255,230,230" fill="1" layer="-1.00" shape="2205.205749,1107.472162 2201.995922,1122.146975 2219.743017,1125.976772 2223.660576,1111.807180 2205.205749,1107.472162"/>
    <poly id="176892548" type="building.yes" color="255,230,230" fill="1" layer="-1.00" shape="2500.504037,1152.551930 2503.290906,1156.414353 2507.235634,1159.094522 2511.863044,1160.270328 2516.611520,1159.806297 2520.915216,1157.744444 2523.702184,1155.102576 2525.961105,1150.916397 2526.647342,1146.204367 2525.015082,1140.149550 2522.061149,1136.416332 2517.993817,1133.910828 2513.325215,1132.933829 2507.661295,1133.964324 2503.628489,1136.509917 2500.714670,1140.269816 2499.267304,1144.808321 2499.473133,1149.552705 2500.504037,1152.551930"/>
    <poly id="176892548#1" type="man_made.storage_tank" color="255,230,230" fill="1" layer="-1.00" shape="2500.504037,1152.551930 2503.290906,1156.414353 2507.235634,1159.094522 2511.863044,1160.270328 2516.611520,1159.806297 2520.915216,1157.744444 2523.702184,1155.102576 2525.961105,1150.916397 2526.647342,1146.204367 2525.015082,1140.149550 2522.061149,1136.416332 2517.993817,1133.910828 2513.325215,1132.933829 2507.661295,1133.964324 2503.628489,1136.509917 2500.714670,1140.269816 2499.267304,1144.808321 2499.473133,1149.552705 2500.504037,1152.551930"/>
    <poly id="176892553" type="building.yes" color="255,230,230" fill="1" layer="-1.00" shape="2263.632006,1094.033575 2254.510564,1035.921696 2269.465023,1033.835704 2278.187587,1091.860415 2263.632006,1094.033575"/>
    <poly id="176892571" type="amenity.school" color="237,199,199" fill="1" layer="-2.00" shape="1978.094670,1397.116861 1968.964834,1462.719564 1936.101249,1457.887184 1945.435901,1392.089542 1978.094670,1397.116861"/>
    <poly id="176892582" type="leisure.pitch" color="207,245,201" fill="1" layer="-2.00" shape="2025.324160,1188.548845 2013.334374,1254.105727 2133.546602,1264.744994 2142.530501,1212.991029 2141.990639,1209.259870 2025.324160,1188.548845"/>
    <poly id="176892583" type="building.yes" color="255,230,230" fill="1" layer="-1.00" shape="2210.577915,1080.794784 2206.397497,1099.120424 2220.900515,1102.218167 2224.997825,1084.323433 2210.577915,1080.794784"/>
    <poly id="176892598" type="building.yes" color="255,230,230" fill="1" layer="-1.00" shape="2552.500114,1139.816654 2548.265776,1142.790305 2543.268245,1144.147444 2538.103589,1143.724684 2533.399541,1141.559184 2528.644939,1136.162531 2527.104349,1131.230946 2527.345368,1126.086526 2530.858151,1119.366244 2534.951038,1116.211622 2539.889868,1114.642189 2545.068933,1114.843302 2549.859963,1116.799989 2551.936175,1118.370097 2555.109540,1122.452639 2556.686802,1127.374003 2556.482188,1132.519291 2554.509711,1137.300563 2552.500114,1139.816654"/>
    <poly id="176892598#1" type="man_made.storage_tank" color="255,230,230" fill="1" layer="-1.00" shape="2552.500114,1139.816654 2548.265776,1142.790305 2543.268245,1144.147444 2538.103589,1143.724684 2533.399541,1141.559184 2528.644939,1136.162531 2527.104349,1131.230946 2527.345368,1126.086526 2530.858151,1119.366244 2534.951038,1116.211622 2539.889868,1114.642189 2545.068933,1114.843302 2549.859963,1116.799989 2551.936175,1118.370097 2555.109540,1122.452639 2556.686802,1127.374003 2556.482188,1132.519291 2554.509711,1137.300563 2552.500114,1139.816654"/>
    <poly id="176892603" type="building.yes" color="255,230,230" fill="1" layer="-1.00" shape="2216.833846,1057.179688 2213.874190,1071.294378 2232.123232,1075.091737 2235.074075,1060.965742 2216.833846,1057.179688"/>
    <poly id="176892611" type="building.yes" color="255,230,230" fill="1" layer="-1.00" shape="2513.584345,1126.646594 2509.010465,1126.282326 2504.837535,1124.384785 2502.691793,1122.291355 2501.561058,1121.187765 2499.591418,1117.056227 2499.200191,1112.063236 2500.497911,1107.687659 2503.227519,1104.012165 2507.059228,1101.495079 2510.918995,1100.477093 2515.503314,1100.786113 2519.695521,1102.639720 2523.000109,1105.804117 2524.872108,1109.444957 2525.529636,1113.967017 2524.594002,1118.440015 2522.178316,1122.322773 2518.576211,1125.145010 2513.584345,1126.646594"/>
    <poly id="176892611#1" type="man_made.storage_tank" color="255,230,230" fill="1" layer="-1.00" shape="2513.584345,1126.646594 2509.010465,1126.282326 2504.837535,1124.384785 2502.691793,1122.291355 2501.561058,1121.187765 2499.591418,1117.056227 2499.200191,1112.063236 2500.497911,1107.687659 2503.227519,1104.012165 2507.059228,1101.495079 2510.918995,1100.477093 2515.503314,1100.786113 2519.695521,1102.639720 2523.000109,1105.804117 2524.872108,1109.444957 2525.529636,1113.967017 2524.594002,1118.440015 2522.178316,1122.322773 2518.576211,1125.145010 2513.584345,1126.646594"/>
    <poly id="176892620" type="building.yes" color="255,230,230" fill="1" layer="-1.00" shape="2229.041493,1006.656825 2225.871595,1020.033946 2244.736076,1024.389841 2247.747778,1011.153253 2229.041493,1006.656825"/>
    <poly id="176892622" type="landuse.retail" color="194,194,130" fill="1" layer="-3.00" shape="2828.729574,1343.675481 2834.705411,1394.087815 2774.849217,1400.284948 2768.726209,1349.536181 2828.729574,1343.675481"/>
    <poly id="176892626" type="building.yes" color="255,230,230" fill="1" layer="-1.00" shape="2130.607314,1088.793115 2125.564635,1098.562793 2082.329935,1077.344718 2086.461652,1067.952937 2130.607314,1088.793115"/>
    <poly id="176892627" type="building.yes" color="255,230,230" fill="1" layer="-1.00" shape="2148.847583,1108.662109 2158.323432,1113.216298 2195.041721,1040.322802 2184.958916,1035.620946 2148.847583,1108.662109"/>
    <poly id="176892635" type="building.yes" color="255,230,230" fill="1" layer="-1.00" shape="2222.395959,1029.030605 2218.061637,1046.930801 2232.894377,1049.958706 2236.997532,1031.819926 2222.395959,1029.030605"/>
    <poly id="176892650" type="landuse.residential" color="235,235,227" fill="1" layer="-3.00" shape="2327.197350,1174.330634 2335.460685,1190.011124 2345.064644,1238.156208 2340.296176,1260.508014 2340.861224,1318.660521 2219.328432,1315.690041 2218.582358,1312.586636 2184.647711,1311.779202 2185.775430,1305.734627 2189.126802,1277.832619 2156.061231,1273.804937 2185.273511,1152.217141 2189.471424,1153.449159 2187.591787,1160.463696 2210.352227,1165.711391 2208.174736,1174.905433 2244.686909,1181.124198 2246.557484,1174.109453 2249.295532,1171.988018 2321.541944,1165.438516 2327.197350,1174.330634"/>
    <poly id="176892664" type="amenity.university" color="237,199,199" fill="1" layer="-2.00" shape="2574.635209,1250.040490 2581.030197,1385.362591 2575.074671,1429.973813 2418.029241,1433.613003 2412.408719,1423.267606 2385.075225,1425.691175 2377.901182,1435.820647 2306.119452,1443.601556 2173.486407,1424.794774 2184.647711,1311.779202 2218.582358,1312.586636 2219.328432,1315.690041 2340.861224,1318.660521 2340.296176,1260.508014 2345.064644,1238.156208 2335.460685,1190.011124 2353.996968,1187.855171 2353.861012,1197.009000 2395.134918,1197.991814 2398.026111,1199.769986 2400.937859,1197.242050 2529.402166,1236.286877 2534.313498,1237.780249 2574.635209,1250.040490"/>
    <poly id="177053361" type="amenity.planetarium" color="237,199,199" fill="1" layer="-1.00" shape="2523.970748,172.094624 2531.890017,167.443897 2540.882567,165.549215 2550.014268,166.610317 2558.331070,170.515677 2564.959173,176.844896 2569.221303,184.960263 2570.673395,193.996535 2569.146164,203.028419 2564.817419,211.094499 2558.125872,217.372769 2549.403986,221.293983 2539.862902,222.121136 2530.589421,219.746926 2522.633775,214.451657 2516.883732,206.833646 2513.993071,197.752022 2514.292897,188.224718 2517.748219,179.338650 2523.970748,172.094624"/>
    <poly id="177053361#1" type="building.yes" color="255,230,230" fill="1" layer="-1.00" shape="2523.970748,172.094624 2531.890017,167.443897 2540.882567,165.549215 2550.014268,166.610317 2558.331070,170.515677 2564.959173,176.844896 2569.221303,184.960263 2570.673395,193.996535 2569.146164,203.028419 2564.817419,211.094499 2558.125872,217.372769 2549.403986,221.293983 2539.862902,222.121136 2530.589421,219.746926 2522.633775,214.451657 2516.883732,206.833646 2513.993071,197.752022 2514.292897,188.224718 2517.748219,179.338650 2523.970748,172.094624"/>
    <poly id="177053361#2" type="tourism.museum" color="207,245,201" fill="1" layer="-2.00" shape="2523.970748,172.094624 2531.890017,167.443897 2540.882567,165.549215 2550.014268,166.610317 2558.331070,170.515677 2564.959173,176.844896 2569.221303,184.960263 2570.673395,193.996535 2569.146164,203.028419 2564.817419,211.094499 2558.125872,217.372769 2549.403986,221.293983 2539.862902,222.121136 2530.589421,219.746926 2522.633775,214.451657 2516.883732,206.833646 2513.993071,197.752022 2514.292897,188.224718 2517.748219,179.338650 2523.970748,172.094624"/>
    <poly id="219035051" type="leisure.track" color="207,245,201" fill="1" layer="-2.00" shape="1841.456903,185.076330 1883.835263,211.866648 1915.236158,144.983720 1899.314656,136.325388 1879.338594,133.420186 1867.937241,140.452838 1841.456903,185.076330"/>
    <poly id="219035135" type="amenity.hospital" color="237,199,199" fill="1" layer="-1.00" shape="1537.375629,208.517520 1581.536453,201.284610 1575.597191,163.194946 1536.386555,167.615034 1537.375629,208.517520"/>
    <poly id="219038124" type="landuse.cemetery" color="194,194,130" fill="1" layer="-3.00" shape="3139.406414,292.487358 3132.425232,338.716608 3108.711619,335.153276 3109.382188,330.729483 3105.823454,330.189398 3093.266524,328.346640 3096.656096,305.451584 3103.520201,306.459097 3106.311985,287.612191 3120.503309,289.693796 3127.739983,290.743525 3139.406414,292.487358"/>
    <poly id="219038287" type="amenity.hospital" color="237,199,199" fill="1" layer="-1.00" shape="2910.786037,363.060299 2924.715049,363.148531 2925.818263,347.846438 2910.980686,346.504478 2910.786037,363.060299"/>
    <poly id="219098492" type="shop.supermarket" color="237,199,255" fill="1" layer="-1.00" shape="2441.760739,430.274913 2459.213787,446.507290 2465.852743,444.722994 2475.248226,384.965221 2452.718401,380.665944 2441.760739,430.274913"/>
    <poly id="219098499" type="shop.supermarket" color="237,199,255" fill="1" layer="-1.00" shape="2520.454409,385.498119 2550.605370,391.533065 2560.752456,341.172306 2530.601327,335.137335 2520.454409,385.498119"/>
    <poly id="219098507" type="amenity.police" color="237,199,199" fill="1" layer="-1.00" shape="2489.619564,378.337041 2511.983362,382.721251 2515.370887,365.586661 2493.007048,361.202444 2489.619564,378.337041"/>
    <poly id="219098545" type="building.yes" color="255,230,230" fill="1" layer="-1.00" shape="2561.127471,391.206588 2588.292204,395.616585 2597.823729,348.537730 2570.310181,344.230398 2561.127471,391.206588"/>
    <poly id="219098639" type="amenity.school" color="237,199,199" fill="1" layer="-2.00" shape="2480.149728,436.239423 2527.681245,441.267551 2535.767841,399.370986 2487.562193,391.651802 2480.149728,436.239423"/>
    <poly id="219098704" type="amenity.place_of_worship" color="237,199,199" fill="1" layer="-1.00" shape="2803.630512,472.986045 2824.679277,477.483980 2835.958939,462.968535 2807.138187,457.330623 2803.630512,472.986045"/>
    <poly id="219098704#1" type="building.mosque" color="255,230,230" fill="1" layer="-1.00" shape="2803.630512,472.986045 2824.679277,477.483980 2835.958939,462.968535 2807.138187,457.330623 2803.630512,472.986045"/>
    <poly id="219098830" type="amenity.police" color="237,199,199" fill="1" layer="-1.00" shape="2874.865859,362.447339 2905.884427,363.431704 2907.030920,345.932941 2871.967484,340.723049 2874.865859,362.447339"/>
    <poly id="219098855" type="amenity.school" color="237,199,199" fill="1" layer="-2.00" shape="2872.399157,332.941497 2918.090550,339.503872 2928.872920,276.738190 2878.113687,272.152668 2876.049764,271.970228 2872.399157,332.941497"/>
    <poly id="219098872" type="amenity.school" color="237,199,199" fill="1" layer="-2.00" shape="2873.459810,257.556775 2929.581642,267.276124 2935.017053,228.124686 2897.556003,220.659804 2893.450230,235.024487 2875.029278,233.019922 2873.459810,257.556775"/>