<?xml version="1.0" encoding="UTF-8"?>

<!-- generated on 2025-03-17 09:36:51 by Eclipse SUMO duarouter Version 1.22.0
<duarouterConfiguration xmlns:xsi="http://www.w3.org/2001/XMLSchema-instance" xsi:noNamespaceSchemaLocation="http://sumo.dlr.de/xsd/duarouterConfiguration.xsd">

    <input>
        <net-file value="C:\Users\FADEL\Desktop\sumo-win64-1.8.0\sumo-1.8.0\tools\2025-03-17-09-36-45\osm.net.xml"/>
        <route-files value="C:\Users\FADEL\Desktop\sumo-win64-1.8.0\sumo-1.8.0\tools\2025-03-17-09-36-45\osm.passenger.trips.xml"/>
    </input>

    <output>
        <output-file value="C:\Users\FADEL\Desktop\sumo-win64-1.8.0\sumo-1.8.0\tools\2025-03-17-09-36-45\osm.passenger.trips.xml.tmp"/>
        <write-trips value="true"/>
    </output>

    <time>
        <begin value="0"/>
        <end value="3600"/>
    </time>

    <report>
        <no-warnings value="true"/>
        <ignore-errors value="true"/>
        <no-step-log value="true"/>
    </report>

</duarouterConfiguration>
-->

<routes xmlns:xsi="http://www.w3.org/2001/XMLSchema-instance" xsi:noNamespaceSchemaLocation="http://sumo.dlr.de/xsd/routes_file.xsd">
    <vType id="veh_passenger" vClass="passenger"/>
    <trip id="veh0" type="veh_passenger" depart="0.00" departLane="best" departSpeed="max" from="176504327" to="-176254067#6"/>
    <trip id="veh1" type="veh_passenger" depart="2.73" departLane="best" from="176719422#5" to="176504348#4"/>
    <trip id="veh2" type="veh_passenger" depart="5.46" departLane="best" from="176892539#2" to="-176494274#2"/>
    <trip id="veh3" type="veh_passenger" depart="8.20" departLane="best" from="-250475139#8" to="-176254074#1"/>
    <trip id="veh4" type="veh_passenger" depart="10.93" departLane="best" from="-176719403#0" to="176230347#3"/>
    <trip id="veh5" type="veh_passenger" depart="13.66" departLane="best" from="-176254067#3" to="-176714635#0"/>
    <trip id="veh6" type="veh_passenger" depart="16.39" departLane="best" departSpeed="max" from="-176719403#3" to="176494262#2"/>
    <trip id="veh7" type="veh_passenger" depart="19.12" departLane="best" from="176726992#2" to="-176230347#0"/>
    <trip id="veh8" type="veh_passenger" depart="21.85" departLane="best" from="176719518#6" to="176714623#3"/>
    <trip id="veh9" type="veh_passenger" depart="24.59" departLane="best" from="-176887833" to="-176504325#0"/>
    <trip id="veh10" type="veh_passenger" depart="27.32" departLane="best" from="250475139#5" to="-176726996#0"/>
    <trip id="veh11" type="veh_passenger" depart="30.05" departLane="best" from="-176494279#2" to="-176494283#0"/>
    <trip id="veh12" type="veh_passenger" depart="32.78" departLane="best" from="176728169#3" to="176494277"/>
    <trip id="veh13" type="veh_passenger" depart="35.51" departLane="best" from="176726991#1" to="176719376#0"/>
    <trip id="veh14" type="veh_passenger" depart="38.24" departLane="best" from="176494256#1" to="539408154#7"/>
    <trip id="veh15" type="veh_passenger" depart="40.98" departLane="best" from="176727005#2" to="176494284#1"/>
    <trip id="veh16" type="veh_passenger" depart="43.71" departLane="best" departSpeed="max" from="176733527#0" to="176334985#7"/>
    <trip id="veh17" type="veh_passenger" depart="46.44" departLane="best" from="176719369#2" to="-176259832#2"/>
    <trip id="veh18" type="veh_passenger" depart="49.17" departLane="best" from="-176494270#1" to="-176719384#5"/>
    <trip id="veh19" type="veh_passenger" depart="51.90" departLane="best" from="-176494283#5" to="-176719451#3"/>
    <trip id="veh20" type="veh_passenger" depart="54.63" departLane="best" departSpeed="max" from="176504325#0" to="-176728169#4"/>
    <trip id="veh21" type="veh_passenger" depart="57.37" departLane="best" from="-176892578#1" to="-176714650#0"/>
    <trip id="veh22" type="veh_passenger" depart="60.10" departLane="best" from="-176719485#1" to="176906421"/>
    <trip id="veh23" type="veh_passenger" depart="62.83" departLane="best" from="176504368#1" to="176494279#2"/>
    <trip id="veh24" type="veh_passenger" depart="65.56" departLane="best" from="-176714623#1" to="176719374#2"/>
    <trip id="veh25" type="veh_passenger" depart="68.29" departLane="best" from="-176714617#1" to="-176733527#0"/>
    <trip id="veh26" type="veh_passenger" depart="71.02" departLane="best" from="731232669" to="176498845#5"/>
    <trip id="veh27" type="veh_passenger" depart="73.76" departLane="best" from="176494273#1" to="176714604#1"/>
    <trip id="veh28" type="veh_passenger" depart="76.49" departLane="best" from="-176719422#0" to="-176254074#4"/>
    <trip id="veh29" type="veh_passenger" depart="79.22" departLane="best" from="-176727017#0" to="-176719442#6"/>
    <trip id="veh30" type="veh_passenger" depart="81.95" departLane="best" from="-176719394#0" to="240272960#2"/>
    <trip id="veh31" type="veh_passenger" depart="84.68" departLane="best" departSpeed="max" from="176887840#0" to="-176719506#1"/>
    <trip id="veh32" type="veh_passenger" depart="87.41" departLane="best" from="176714612#0" to="-176887840#1"/>
    <trip id="veh33" type="veh_passenger" depart="90.15" departLane="best" from="176892594#5" to="-240272960#3"/>
    <trip id="veh34" type="veh_passenger" depart="92.88" departLane="best" from="176494276" to="-176719436#2"/>
    <trip id="veh35" type="veh_passenger" depart="95.61" departLane="best" from="176498832#5" to="176892570#0"/>
    <trip id="veh36" type="veh_passenger" depart="98.34" departLane="best" departSpeed="max" from="-176906400" to="-176714666#0"/>
    <trip id="veh37" type="veh_passenger" depart="101.07" departLane="best" departSpeed="max" from="815981478" to="176254043#5"/>
    <trip id="veh38" type="veh_passenger" depart="103.80" departLane="best" from="-176494278#3" to="-176259840#1"/>
    <trip id="veh39" type="veh_passenger" depart="106.54" departLane="best" from="176719502#1" to="-176892581#0"/>
    <trip id="veh40" type="veh_passenger" depart="109.27" departLane="best" from="-176334989#3" to="-176733527#2"/>
    <trip id="veh41" type="veh_passenger" depart="112.00" departLane="best" departSpeed="max" from="815981475" to="176254067#2"/>
    <trip id="veh42" type="veh_passenger" depart="114.73" departLane="best" from="539408154#2" to="176728189#3"/>
    <trip id="veh43" type="veh_passenger" depart="117.46" departLane="best" departSpeed="max" from="-176254043#5" to="176714659#2"/>
    <trip id="veh44" type="veh_passenger" depart="120.19" departLane="best" from="176714638#1" to="176254072#3"/>
    <trip id="veh45" type="veh_passenger" depart="122.93" departLane="best" from="-176719485#0" to="176498846#0"/>
    <trip id="veh46" type="veh_passenger" depart="125.66" departLane="best" from="-176498832#9" to="-176892596"/>
    <trip id="veh47" type="veh_passenger" depart="128.39" departLane="best" from="1047426179#0" to="250475139#0"/>
    <trip id="veh48" type="veh_passenger" depart="131.12" departLane="best" departSpeed="max" from="176887840#0" to="-176719436#3"/>
    <trip id="veh49" type="veh_passenger" depart="133.85" departLane="best" from="176259820#5" to="-176714614"/>
    <trip id="veh50" type="veh_passenger" depart="136.58" departLane="best" from="-176726993#1" to="176498845#3"/>
    <trip id="veh51" type="veh_passenger" depart="139.32" departLane="best" from="176498854#3" to="-176504314#2"/>
    <trip id="veh52" type="veh_passenger" depart="142.05" departLane="best" from="176719457#3" to="176254074#2"/>
    <trip id="veh53" type="veh_passenger" depart="144.78" departLane="best" from="176719485#2" to="176254067#4"/>
    <trip id="veh54" type="veh_passenger" depart="147.51" departLane="best" from="-1047426179#0" to="-176726992#0"/>
    <trip id="veh55" type="veh_passenger" depart="150.24" departLane="best" from="-176254067#15" to="176906396"/>
    <trip id="veh56" type="veh_passenger" depart="152.97" departLane="best" departSpeed="max" from="176887843" to="176726998#0"/>
    <trip id="veh57" type="veh_passenger" depart="155.71" departLane="best" from="-176727004#0" to="-176334989#0"/>
    <trip id="veh58" type="veh_passenger" depart="158.44" departLane="best" from="176887842#0" to="240272962"/>
    <trip id="veh59" type="veh_passenger" depart="161.17" departLane="best" from="-176494274#6" to="-731225651"/>
    <trip id="veh60" type="veh_passenger" depart="163.90" departLane="best" from="-176494260#2" to="176719434#0"/>
    <trip id="veh61" type="veh_passenger" depart="166.63" departLane="best" from="176719461#2" to="-176498854#3"/>
    <trip id="veh62" type="veh_passenger" depart="169.36" departLane="best" from="176254067#16" to="176259817#2"/>
    <trip id="veh63" type="veh_passenger" depart="172.10" departLane="best" from="-176719480#0" to="176887836#0"/>
    <trip id="veh64" type="veh_passenger" depart="174.83" departLane="best" from="-258028298#1" to="-176714651#2"/>
    <trip id="veh65" type="veh_passenger" depart="177.56" departLane="best" departSpeed="max" from="176494257" to="176719376#0"/>
    <trip id="veh66" type="veh_passenger" depart="180.29" departLane="best" from="-176719374#0" to="-176719504#0"/>
    <trip id="veh67" type="veh_passenger" depart="183.02" departLane="best" departSpeed="max" from="815981475" to="176498854#0"/>
    <trip id="veh68" type="veh_passenger" depart="185.75" departLane="best" from="-731232673#1" to="176254067#10"/>
    <trip id="veh69" type="veh_passenger" depart="188.49" departLane="best" from="-176498846#1" to="-176719371#1"/>
    <trip id="veh70" type="veh_passenger" depart="191.22" departLane="best" from="-176887832#4" to="176494261"/>
    <trip id="veh71" type="veh_passenger" depart="193.95" departLane="best" from="-176719422#0" to="176892594#1"/>
    <trip id="veh72" type="veh_passenger" depart="196.68" departLane="best" from="176733510" to="-176494260#0"/>
    <trip id="veh73" type="veh_passenger" depart="199.41" departLane="best" from="-176719436#6" to="176504312#1"/>
    <trip id="veh74" type="veh_passenger" depart="202.14" departLane="best" from="-176719396#2" to="-176498856#5"/>
    <trip id="veh75" type="veh_passenger" depart="204.88" departLane="best" departSpeed="max" from="235302307#0" to="176334984#4"/>
    <trip id="veh76" type="veh_passenger" depart="207.61" departLane="best" from="176254067#14" to="176719463#10"/>
    <trip id="veh77" type="veh_passenger" depart="210.34" departLane="best" from="176726992#0" to="-176714622#0"/>
    <trip id="veh78" type="veh_passenger" depart="213.07" departLane="best" departSpeed="max" from="-176494282" to="-176892594#2"/>
    <trip id="veh79" type="veh_passenger" depart="215.80" departLane="best" from="-258028298#2" to="-250475139#2"/>
    <trip id="veh80" type="veh_passenger" depart="218.53" departLane="best" from="176719410#1" to="176504348#0"/>
    <trip id="veh81" type="veh_passenger" depart="221.27" departLane="best" departSpeed="max" from="-176906401" to="-176726999#0"/>
    <trip id="veh82" type="veh_passenger" depart="224.00" departLane="best" departSpeed="max" from="176733527#0" to="-176719410#2"/>
    <trip id="veh83" type="veh_passenger" depart="226.73" departLane="best" from="-176714651#2" to="-176892668#1"/>
    <trip id="veh84" type="veh_passenger" depart="229.46" departLane="best" from="-250475139#8" to="-176719455"/>
    <trip id="veh85" type="veh_passenger" depart="232.19" departLane="best" from="-176719455" to="176892668#2"/>
    <trip id="veh86" type="veh_passenger" depart="234.92" departLane="best" from="-815981485" to="176733524#0"/>
    <trip id="veh87" type="veh_passenger" depart="237.66" departLane="best" from="176494267#0" to="-176334985#1"/>
    <trip id="veh88" type="veh_passenger" depart="240.39" departLane="best" from="815981485" to="176727002#1"/>
    <trip id="veh89" type="veh_passenger" depart="243.12" departLane="best" departSpeed="max" from="539408154#0" to="176906364"/>
    <trip id="veh90" type="veh_passenger" depart="245.85" departLane="best" from="176728171#0" to="-176504365#5"/>
    <trip id="veh91" type="veh_passenger" depart="248.58" departLane="best" from="176254074#2" to="-176714657"/>
    <trip id="veh92" type="veh_passenger" depart="251.31" departLane="best" departSpeed="max" from="-176906401" to="-176334989#0"/>
    <trip id="veh93" type="veh_passenger" depart="254.05" departLane="best" from="-176892605#1" to="731232670"/>
    <trip id="veh94" type="veh_passenger" depart="256.78" departLane="best" from="-176719480#1" to="176719461#4"/>
    <trip id="veh95" type="veh_passenger" depart="259.51" departLane="best" from="176230338#10" to="-176892581#0"/>
    <trip id="veh96" type="veh_passenger" depart="262.24" departLane="best" from="176494272#0" to="176714655#1"/>
    <trip id="veh97" type="veh_passenger" depart="264.97" departLane="best" from="-176504368#0" to="-176719485#2"/>
    <trip id="veh98" type="veh_passenger" depart="267.70" departLane="best" departSpeed="max" from="539408154#0" to="176334989#2"/>
    <trip id="veh99" type="veh_passenger" depart="270.44" departLane="best" from="176494258#1" to="176719403#3"/>
    <trip id="veh100" type="veh_passenger" depart="273.17" departLane="best" from="-176334985#1" to="176494258#1"/>
    <trip id="veh101" type="veh_passenger" depart="275.90" departLane="best" from="176259823#1" to="176728169#0"/>
    <trip id="veh102" type="veh_passenger" depart="278.63" departLane="best" from="-176714603" to="252219057"/>
    <trip id="veh103" type="veh_passenger" depart="281.36" departLane="best" from="-176494271#0" to="-176714618#0"/>
    <trip id="veh104" type="veh_passenger" depart="284.09" departLane="best" from="176498843#0" to="176504348#4"/>
    <trip id="veh105" type="veh_passenger" depart="286.83" departLane="best" from="-176719436#14" to="-176498839#3"/>
    <trip id="veh106" type="veh_passenger" depart="289.56" departLane="best" from="176887852#0" to="-176719403#2"/>
    <trip id="veh107" type="veh_passenger" depart="292.29" departLane="best" from="176498841" to="176494285#2"/>
    <trip id="veh108" type="veh_passenger" depart="295.02" departLane="best" from="-250475139#2" to="176494256#3"/>
    <trip id="veh109" type="veh_passenger" depart="297.75" departLane="best" from="176334985#4" to="176906401"/>
    <trip id="veh110" type="veh_passenger" depart="300.48" departLane="best" from="-176719378#1" to="176714651#0"/>
    <trip id="veh111" type="veh_passenger" depart="303.22" departLane="best" from="-176719436#7" to="-176887842#0"/>
    <trip id="veh112" type="veh_passenger" depart="305.95" departLane="best" from="176714622#1" to="-176719488#1"/>
    <trip id="veh113" type="veh_passenger" depart="308.68" departLane="best" from="-176727017#2" to="176719411#0"/>
    <trip id="veh114" type="veh_passenger" depart="311.41" departLane="best" departSpeed="max" from="815981478" to="815981490"/>
    <trip id="veh115" type="veh_passenger" depart="314.14" departLane="best" from="-176494265" to="-176714655#2"/>
    <trip id="veh116" type="veh_passenger" depart="316.87" departLane="best" from="-176719480#1" to="176906401"/>
    <trip id="veh117" type="veh_passenger" depart="319.61" departLane="best" from="-176892576#2" to="-176504327"/>
    <trip id="veh118" type="veh_passenger" depart="322.34" departLane="best" from="176727014" to="176714635#1"/>
    <trip id="veh119" type="veh_passenger" depart="325.07" departLane="best" from="176498856#2" to="731232673#0"/>
    <trip id="veh120" type="veh_passenger" depart="327.80" departLane="best" departSpeed="max" from="176714608" to="-176230347#0"/>
    <trip id="veh121" type="veh_passenger" depart="330.53" departLane="best" from="176726995#2" to="-176719488#0"/>
    <trip id="veh122" type="veh_passenger" depart="333.26" departLane="best" from="176714617#2" to="235302307#4"/>
    <trip id="veh123" type="veh_passenger" depart="336.00" departLane="best" from="-176498831#2" to="176259820#4"/>
    <trip id="veh124" type="veh_passenger" depart="338.73" departLane="best" from="-176719489#2" to="176494277"/>
    <trip id="veh125" type="veh_passenger" depart="341.46" departLane="best" from="176719392" to="-176714640"/>
    <trip id="veh126" type="veh_passenger" depart="344.19" departLane="best" from="176504324" to="-176719436#4"/>
    <trip id="veh127" type="veh_passenger" depart="346.92" departLane="best" from="176257697#0" to="176892594#1"/>
    <trip id="veh128" type="veh_passenger" depart="349.65" departLane="best" from="176727800#3" to="-176494279#0"/>
    <trip id="veh129" type="veh_passenger" depart="352.39" departLane="best" from="-258028298#2" to="-176719451#0"/>
    <trip id="veh130" type="veh_passenger" depart="355.12" departLane="best" from="-176230338#4" to="176719445#2"/>
    <trip id="veh131" type="veh_passenger" depart="357.85" departLane="best" from="176504325#1" to="-176719436#14"/>
    <trip id="veh132" type="veh_passenger" depart="360.58" departLane="best" from="176719434#0" to="176259820#1"/>
    <trip id="veh133" type="veh_passenger" depart="363.31" departLane="best" from="-728288074" to="-176230347#4"/>
    <trip id="veh134" type="veh_passenger" depart="366.05" departLane="best" from="-176494266#3" to="176887846#2"/>
    <trip id="veh135" type="veh_passenger" depart="368.78" departLane="best" from="176892578#4" to="176257712#5"/>
    <trip id="veh136" type="veh_passenger" depart="371.51" departLane="best" departSpeed="max" from="176727016#0" to="176494256#0"/>
    <trip id="veh137" type="veh_passenger" depart="374.24" departLane="best" from="-176504348#1" to="-176498854#1"/>
    <trip id="veh138" type="veh_passenger" depart="376.97" departLane="best" from="-176727004#1" to="176892576#2"/>
    <trip id="veh139" type="veh_passenger" depart="379.70" departLane="best" from="176719504#4" to="176728189#3"/>
    <trip id="veh140" type="veh_passenger" depart="382.44" departLane="best" departSpeed="max" from="176892576#0" to="-176714650#0"/>
    <trip id="veh141" type="veh_passenger" depart="385.17" departLane="best" from="-176719455" to="-176494285#1"/>
    <trip id="veh142" type="veh_passenger" depart="387.90" departLane="best" from="176719487#0" to="176887846#3"/>
    <trip id="veh143" type="veh_passenger" depart="390.63" departLane="best" from="-235302307#4" to="176494286#1"/>
    <trip id="veh144" type="veh_passenger" depart="393.36" departLane="best" from="-176504365#6" to="176906396"/>
    <trip id="veh145" type="veh_passenger" depart="396.09" departLane="best" departSpeed="max" from="176733530#0" to="728944932"/>
    <trip id="veh146" type="veh_passenger" depart="398.83" departLane="best" from="176726992#3" to="176887845#2"/>
    <trip id="veh147" type="veh_passenger" depart="401.56" departLane="best" departSpeed="max" from="-176254067#17" to="176719388#1"/>
    <trip id="veh148" type="veh_passenger" depart="404.29" departLane="best" from="-176733510" to="176906400"/>
    <trip id="veh149" type="veh_passenger" depart="407.02" departLane="best" from="176719511#3" to="176733530#1"/>
    <trip id="veh150" type="veh_passenger" depart="409.75" departLane="best" from="176726992#3" to="-176719442#3"/>
    <trip id="veh151" type="veh_passenger" depart="412.48" departLane="best" from="176719498#1" to="-176498828"/>
    <trip id="veh152" type="veh_passenger" depart="415.22" departLane="best" from="176887833" to="176728183"/>
    <trip id="veh153" type="veh_passenger" depart="417.95" departLane="best" departSpeed="max" from="176230347#0" to="-176719498#2"/>
    <trip id="veh154" type="veh_passenger" depart="420.68" departLane="best" departSpeed="max" from="-176254067#17" to="-176714623#2"/>
    <trip id="veh155" type="veh_passenger" depart="423.41" departLane="best" from="258028298#2" to="-176719457#0"/>
    <trip id="veh156" type="veh_passenger" depart="426.14" departLane="best" departSpeed="max" from="176504347" to="-176887844#1"/>
    <trip id="veh157" type="veh_passenger" depart="428.87" departLane="best" from="730082235" to="176254072#1"/>
    <trip id="veh158" type="veh_passenger" depart="431.61" departLane="best" from="235302307#4" to="-176498834#1"/>
    <trip id="veh159" type="veh_passenger" depart="434.34" departLane="best" departSpeed="max" from="539408154#0" to="-176714614"/>
    <trip id="veh160" type="veh_passenger" depart="437.07" departLane="best" from="255337381#2" to="-176719436#9"/>
    <trip id="veh161" type="veh_passenger" depart="439.80" departLane="best" from="-176498832#1" to="-176892596"/>
    <trip id="veh162" type="veh_passenger" depart="442.53" departLane="best" from="176498852#0" to="176254044#0"/>
    <trip id="veh163" type="veh_passenger" depart="445.26" departLane="best" from="-176892641#2" to="176334985#7"/>
    <trip id="veh164" type="veh_passenger" depart="448.00" departLane="best" from="-176719461#2" to="176714641#4"/>
    <trip id="veh165" type="veh_passenger" depart="450.73" departLane="best" from="-176230338#1" to="176906364"/>
    <trip id="veh166" type="veh_passenger" depart="453.46" departLane="best" departSpeed="max" from="176494257" to="176714659#0"/>
    <trip id="veh167" type="veh_passenger" depart="456.19" departLane="best" from="176719436#1" to="176504314#1"/>
    <trip id="veh168" type="veh_passenger" depart="458.92" departLane="best" departSpeed="max" from="-176892562#1" to="-176494258#0"/>
    <trip id="veh169" type="veh_passenger" depart="461.65" departLane="best" from="176714617#4" to="-176726992#7"/>
    <trip id="veh170" type="veh_passenger" depart="464.39" departLane="best" from="-176727012#3" to="176727017#4"/>
    <trip id="veh171" type="veh_passenger" depart="467.12" departLane="best" from="176719395#1" to="-176719489#0"/>
    <trip id="veh172" type="veh_passenger" depart="469.85" departLane="best" from="-176727005#0" to="-176887852#0"/>
    <trip id="veh173" type="veh_passenger" depart="472.58" departLane="best" departSpeed="max" from="-176906401" to="-176719485#0"/>
    <trip id="veh174" type="veh_passenger" depart="475.31" departLane="best" from="-176498856#0" to="-176892578#1"/>
    <trip id="veh175" type="veh_passenger" depart="478.04" departLane="best" from="240272959#3" to="176504359"/>
    <trip id="veh176" type="veh_passenger" depart="480.78" departLane="best" from="176892578#1" to="176494283#1"/>
    <trip id="veh177" type="veh_passenger" depart="483.51" departLane="best" from="-176726995#2" to="176259816#2"/>
    <trip id="veh178" type="veh_passenger" depart="486.24" departLane="best" from="-1040787182" to="-176719463#5"/>
    <trip id="veh179" type="veh_passenger" depart="488.97" departLane="best" from="-730948890#1" to="176334989#3"/>
    <trip id="veh180" type="veh_passenger" depart="491.70" departLane="best" departSpeed="max" from="176714608" to="-240273032"/>
    <trip id="veh181" type="veh_passenger" depart="494.43" departLane="best" departSpeed="max" from="-815981472" to="-176714657"/>
    <trip id="veh182" type="veh_passenger" depart="497.17" departLane="best" from="176254067#14" to="176892578#4"/>
    <trip id="veh183" type="veh_passenger" depart="499.90" departLane="best" from="176719504#4" to="-176714603"/>
    <trip id="veh184" type="veh_passenger" depart="502.63" departLane="best" from="-176494274#3" to="176254044#4"/>
    <trip id="veh185" type="veh_passenger" depart="505.36" departLane="best" from="176504314#1" to="-176726996#0"/>
    <trip id="veh186" type="veh_passenger" depart="508.09" departLane="best" departSpeed="max" from="176726996#0" to="176719410#1"/>
    <trip id="veh187" type="veh_passenger" depart="510.82" departLane="best" from="176714623#1" to="-176719371#0"/>
    <trip id="veh188" type="veh_passenger" depart="513.56" departLane="best" from="-176719369#1" to="-176254067#5"/>
    <trip id="veh189" type="veh_passenger" depart="516.29" departLane="best" from="-176719445#7" to="-539408154#2"/>
    <trip id="veh190" type="veh_passenger" depart="519.02" departLane="best" departSpeed="max" from="176728174" to="-176494262#0"/>
    <trip id="veh191" type="veh_passenger" depart="521.75" departLane="best" from="-240272964#4" to="176498835#1"/>
    <trip id="veh192" type="veh_passenger" depart="524.48" departLane="best" from="-176714661#0" to="176714623#1"/>
    <trip id="veh193" type="veh_passenger" depart="527.21" departLane="best" from="176257712#9" to="-176719401#0"/>
    <trip id="veh194" type="veh_passenger" depart="529.95" departLane="best" from="176714612#1" to="-176230338#9"/>
    <trip id="veh195" type="veh_passenger" depart="532.68" departLane="best" from="-176498831#1" to="-176892581#2"/>
    <trip id="veh196" type="veh_passenger" depart="535.41" departLane="best" departSpeed="max" from="-176714624#1" to="250475139#7"/>
    <trip id="veh197" type="veh_passenger" depart="538.14" departLane="best" from="176259848#2" to="-176334985#1"/>
    <trip id="veh198" type="veh_passenger" depart="540.87" departLane="best" from="-176719451#3" to="176727017#4"/>
    <trip id="veh199" type="veh_passenger" depart="543.60" departLane="best" from="176230338#4" to="176719494"/>
    <trip id="veh200" type="veh_passenger" depart="546.34" departLane="best" from="176714619#1" to="731232673#1"/>
    <trip id="veh201" type="veh_passenger" depart="549.07" departLane="best" from="176498843#0" to="240272964#3"/>
    <trip id="veh202" type="veh_passenger" depart="551.80" departLane="best" from="176892539#0" to="176494282"/>
    <trip id="veh203" type="veh_passenger" depart="554.53" departLane="best" from="176719394#1" to="176230344"/>
    <trip id="veh204" type="veh_passenger" depart="557.26" departLane="best" from="176727007#1" to="176259816#2"/>
    <trip id="veh205" type="veh_passenger" depart="559.99" departLane="best" from="176892567" to="176719400#1"/>
    <trip id="veh206" type="veh_passenger" depart="562.73" departLane="best" from="176254067#16" to="-176719433"/>
    <trip id="veh207" type="veh_passenger" depart="565.46" departLane="best" from="-176719447#5" to="176498843#1"/>
    <trip id="veh208" type="veh_passenger" depart="568.19" departLane="best" from="176719461#2" to="176254067#14"/>
    <trip id="veh209" type="veh_passenger" depart="570.92" departLane="best" from="176499275" to="-176719447#0"/>
    <trip id="veh210" type="veh_passenger" depart="573.65" departLane="best" from="-176494269#2" to="-176719463#3"/>
    <trip id="veh211" type="veh_passenger" depart="576.38" departLane="best" from="-176719489#1" to="-176719511#1"/>
    <trip id="veh212" type="veh_passenger" depart="579.12" departLane="best" departSpeed="max" from="176494258#0" to="-176498859"/>
    <trip id="veh213" type="veh_passenger" depart="581.85" departLane="best" from="-176719425" to="176714619#2"/>
    <trip id="veh214" type="veh_passenger" depart="584.58" departLane="best" from="176719374#0" to="-176494256#0"/>
    <trip id="veh215" type="veh_passenger" depart="587.31" departLane="best" from="-240272960#1" to="176257712#1"/>
    <trip id="veh216" type="veh_passenger" depart="590.04" departLane="best" from="-240272965#0" to="-176714645#1"/>
    <trip id="veh217" type="veh_passenger" depart="592.77" departLane="best" from="-250475139#4" to="176892592#2"/>
    <trip id="veh218" type="veh_passenger" depart="595.51" departLane="best" from="176498832#4" to="176714622#1"/>
    <trip id="veh219" type="veh_passenger" depart="598.24" departLane="best" departSpeed="max" from="176728189#0" to="176719436#4"/>
    <trip id="veh220" type="veh_passenger" depart="600.97" departLane="best" from="-176892608#1" to="-176230344"/>
    <trip id="veh221" type="veh_passenger" depart="603.70" departLane="best" departSpeed="max" from="-176887845#2" to="176719411#3"/>
    <trip id="veh222" type="veh_passenger" depart="606.43" departLane="best" from="176728177#2" to="240273631#2"/>
    <trip id="veh223" type="veh_passenger" depart="609.16" departLane="best" from="-250475139#2" to="176719403#3"/>
    <trip id="veh224" type="veh_passenger" depart="611.90" departLane="best" departSpeed="max" from="176494262#0" to="176494276"/>
    <trip id="veh225" type="veh_passenger" depart="614.63" departLane="best" departSpeed="max" from="-176719403#3" to="-176714666#0"/>
    <trip id="veh226" type="veh_passenger" depart="617.36" departLane="best" from="-731232671" to="-176254074#0"/>
    <trip id="veh227" type="veh_passenger" depart="620.09" departLane="best" from="-176887832#0" to="176504365#3"/>
    <trip id="veh228" type="veh_passenger" depart="622.82" departLane="best" departSpeed="max" from="-176906421" to="-176504365#2"/>
    <trip id="veh229" type="veh_passenger" depart="625.55" departLane="best" from="176254053" to="-176498854#2"/>
    <trip id="veh230" type="veh_passenger" depart="628.29" departLane="best" from="176498861#1" to="-176254067#8"/>
    <trip id="veh231" type="veh_passenger" depart="631.02" departLane="best" departSpeed="max" from="-176906364" to="176259832#0"/>
    <trip id="veh232" type="veh_passenger" depart="633.75" departLane="best" from="-176498860#3" to="-240272964#2"/>
    <trip id="veh233" type="veh_passenger" depart="636.48" departLane="best" from="-176259832#2" to="-176733527#0"/>
    <trip id="veh234" type="veh_passenger" depart="639.21" departLane="best" from="-176719394#1" to="-176726992#2"/>
    <trip id="veh235" type="veh_passenger" depart="641.94" departLane="best" from="176719457#0" to="-176733527#0"/>
    <trip id="veh236" type="veh_passenger" depart="644.68" departLane="best" departSpeed="max" from="176719443" to="176726998#1"/>
    <trip id="veh237" type="veh_passenger" depart="647.41" departLane="best" from="-176719457#7" to="-176494270#0"/>
    <trip id="veh238" type="veh_passenger" depart="650.14" departLane="best" from="-176254067#15" to="176254074#2"/>
    <trip id="veh239" type="veh_passenger" depart="652.87" departLane="best" from="815981508" to="-176727012#2"/>
    <trip id="veh240" type="veh_passenger" depart="655.60" departLane="best" from="176504377" to="176719457#7"/>