<?xml version="1.0" encoding="UTF-8"?>

<!-- generated on 2025-03-18 01:12:51 by Eclipse SUMO duarouter Version 1.22.0
<duarouterConfiguration xmlns:xsi="http://www.w3.org/2001/XMLSchema-instance" xsi:noNamespaceSchemaLocation="http://sumo.dlr.de/xsd/duarouterConfiguration.xsd">

    <input>
        <net-file value="C:\Users\FADEL\Documents\GitHub\TrafficSimulation\backend\2025-03-18-01-12-40\osm.net.xml"/>
        <route-files value="C:\Users\FADEL\Documents\GitHub\TrafficSimulation\backend\2025-03-18-01-12-40\osm.passenger.trips.xml"/>
    </input>

    <output>
        <output-file value="routes.rou.xml"/>
    </output>

    <time>
        <begin value="0"/>
        <end value="3600"/>
    </time>

    <report>
        <no-warnings value="true"/>
        <ignore-errors value="true"/>
        <no-step-log value="true"/>
    </report>

</duarouterConfiguration>
-->

<routes xmlns:xsi="http://www.w3.org/2001/XMLSchema-instance" xsi:noNamespaceSchemaLocation="http://sumo.dlr.de/xsd/routes_file.xsd">
    <vType id="veh_passenger" vClass="passenger"/>
    <vehicle id="veh0" type="veh_passenger" depart="0.00" departLane="best" departSpeed="max">
        <route edges="195401010 195401013#2 171826985#2 4773465#2 1127592486#1 490365295#0 -156364570#4 -156364570#2 -387892378 -370359204#1 -743631784#0 -316746323#4 46140376#0 46140376#1 46140376#2 -84960597#2 -84960597#1 -1103300964#2 -1103300964#0"/>
    </vehicle>
    <vehicle id="veh1" type="veh_passenger" depart="10.51" departLane="best">
        <route edges="284493291#0 72157174#1 171826984#2 24913524#4"/>
    </vehicle>
    <vehicle id="veh2" type="veh_passenger" depart="21.02" departLane="best">
        <route edges="534588621#0 534588621#3 284493291#0 4773465#2 1127592486#1 490365295#0 -156364570#4 -156364570#2 -387892378 -370359204#1 -743631784#0 -316746323#4 183415643 46140382 1120993114#0 1120993114#2 30721660#1 30721660#3 30721660#4 30721660#5 437325047#0 437325047#1 437325047#2 437325047#3 437325047#6 560370523 437325048#0 -437325054#1 -24243107#2 -24243107#1 -24243107#0 -1198409426#2 -1198409426#1 -1198409426#0"/>
    </vehicle>
    <vehicle id="veh3" type="veh_passenger" depart="31.52" departLane="best">
        <route edges="1119838636#1 1119838636#2 122820534#0 122820534#1 122820534#2 4610479#0 4610479#1 4610479#2 22972219#0 4610476#2 4610476#4 4610476#5 1159142856#1 15977422#1 -114667396#3 -114667396#2 -114667396#1 -114667396#0 1113726463 1077923225#0 -330840125#1 -330840125#0 66071373#1 1116360926#1 1111982484#0 1111982484#1 1105574291#0 1105574291#1 1105574291#2 -1105574291#2 -1105574291#1 -1105574291#0"/>
    </vehicle>
    <vehicle id="veh4" type="veh_passenger" depart="42.03" departLane="best" departSpeed="max">
        <route edges="-25294729#1 156364570#2 156364570#3 156364556#1 202157002#0 202157002#1 202157002#2 606078072#1 -534588621#3 -534588621#2 606078071#0 -751595928#1 -136571494#0 -1127595983 38208961 -202817674#5 -202817674#4 -202817674#3 -202817674#2 202817674#1 202817674#3 202817674#4 202817674#5 -38208961 1127595983 136571494#0 136571494#1"/>
    </vehicle>
    <vehicle id="veh5" type="veh_passenger" depart="52.54" departLane="best">
        <route edges="-1105574291#2 -1105574291#1 -1105574291#0 1105574291#0 1105574291#1 1105574291#2 68647306#2 68647306#3 68647306#4 68647306#5 68647306#6 28251222#0 28251222#1 1171295120#1 169195795#0 169195795#1 1217865061#0 114667396#0 114667396#1 114667396#2 114667396#3 -15977422#1 -195411606 -1119854969#1 -1119854969#0 -31313667#1 -31313667#0 -492340367#3 -492340367#1 -492340367#0 -339201185"/>
    </vehicle>
    <vehicle id="veh6" type="veh_passenger" depart="63.05" departLane="best">
        <route edges="195411606 15977422#1 -114667396#3 -114667396#2 -114667396#1 -114667396#0 1113726463 1077923225#0 -330840125#1 -330840125#0 1126237668#1 1079495669#1 340498982#0 1170522567#0 251884680#0 251884680#1 1126246695#1 339201217 1126244314#0 1126244314#1 54048862#2 831694400#0 831694400#1 23013165 4611698 202156994#0 4773465#2 1127592486#1 490365295#0 -156364570#4 -156364570#2 25294728#0 25294728#1 1102369938 1102369940#1 1110526068 234463931#0 234463931#1 1121012037#1 234463928#0 234463928#1 55741054 1179820254#3 19002363#1"/>
    </vehicle>
    <vehicle id="veh7" type="veh_passenger" depart="73.55" departLane="best" departSpeed="max">
        <route edges="-25294729#1 -387892378 -370359204#1 -743631784#0 -316746323#4 183415643 46140382 1120993114#0 1120993114#2 30721660#1 30721660#3 30721660#4 30721660#5 437325047#0 437325047#1 437325047#2 437325047#3 225400578#1"/>
    </vehicle>
    <vehicle id="veh8" type="veh_passenger" depart="84.06" departLane="best">
        <route edges="437325054#0 -437325048#1 -560370523 -437325047#6 -437325047#3 -437325047#2 -437325047#1 -437325047#0 1117432853#1 1117432853#2 4610362#0 4610362#2 4610362#11 30721662#0 30721662#1 1121011269#0 1121011269#1 1121011269#2 831659093#0 831659093#1 1173516144#0 1173516144#1 23809670#1 1173516145#1 28016312 156364556#1 202157002#0 202157002#1 202157002#2 606078072#1 -534588621#3 -534588621#2 606078071#0 751595929#1 194962375#0 194962375#1 194962375#2 950222545 -1040930907#3 -1040930907#0"/>
    </vehicle>
    <vehicle id="veh9" type="veh_passenger" depart="94.57" departLane="best">
        <route edges="437325048#0 -437325048#1 -560370523 -437325047#6 -437325047#3 -437325047#2 -437325047#1 -437325047#0 1117432853#1 1117432853#2 4610362#0 4610362#2 4610362#11 30721662#0 30721662#1 1121011269#0 1121011269#1 1121011269#2 831659093#0 831659093#1 1173516144#0 1173516144#1 23809670#1 1173516145#1 28016312 -156364570#4 -156364570#2 25294729#1"/>
    </vehicle>
    <vehicle id="veh10" type="veh_passenger" depart="105.08" departLane="best">
        <route edges="-534588621#3 -534588621#2 606078071#0 61583424#1 534588621#0 534588621#3 284493291#0 24913519#1 1144362247 541763975 4067932 339201219 -23121445#5 -23121445#4 -23121445#3 -23121445#2 -23121445#1"/>
    </vehicle>
    <vehicle id="veh11" type="veh_passenger" depart="115.58" departLane="best" departSpeed="max">
        <route edges="755551647 755551646#1 1127597264#1 1127596842#2 202817674#1 202817674#3 202817674#4 202817674#5 -38208961 1127595983 136571494#0 136571494#1 61583424#1 534588621#0 534588621#3 284493291#0 4773465#2 1127592486#1 490365295#0 -156364570#4 -156364570#2 -387892378 -370359204#1 -743631784#0 -316746323#4 46140376#0 46140376#1 46140376#2 -84960597#2 -84960597#1 -1103300964#2 1103300964#2"/>
    </vehicle>
    <vehicle id="veh12" type="veh_passenger" depart="126.09" departLane="best">
        <route edges="437325048#0 -437325054#1 -24243107#2 -24243107#1 -24243107#0 -1198409426#2 -1198409426#1 -1198409426#0 -1114798610#1 -1114798610#0 -24243101 339201185 492340367#0 492340367#1 492340367#3 31313667#0 31313667#1 31313667#2 1119854969#1 195411606 15977422#1 340498976#3 340498976#5 340498976#6 340498976#7 340498976#9 340498976#10 340498976#12 1119837993 1119837507#0 1119837507#1 -4610480#1 15971189 339201177#0 339201177#1 339201177#2 339201177#3 339201177#4 339201177#5"/>
    </vehicle>
    <vehicle id="veh13" type="veh_passenger" depart="136.60" departLane="best" departSpeed="max">
        <route edges="1218225317#0 1218225317#1 6227658#0 6227658#1 6227658#2 6227658#3 437325054#0 -437325048#1 -560370523 -437325047#6 -437325047#3 -437325047#2 -437325047#1 -437325047#0 1117432853#1 1117432853#2 4610362#0 4610362#2 4610362#11 30721662#0 30721662#1 1121011269#0 1121011269#1 1121011269#2 831659093#0 831659093#1 1173516144#0 1173516144#1 23809670#1 1173516145#1 28016312 156364556#1 202157002#0 202157002#1 202157002#2 606078072#1 -534588621#3 -534588621#2 606078071#0 61583423#1 82654059#0 82654059#1"/>
    </vehicle>
    <vehicle id="veh14" type="veh_passenger" depart="147.11" departLane="best">
        <route edges="1101961674#2 1101961674#3 1101961674#4 168937986 1101961735#0 1101961735#1 1101961737 -1101961737 -1101961735#1 -1101961735#0 -168937986 -1101961674#4 -1101961674#3 -1101961674#2 -1101961674#1 1149417521#1 1170522567#0 251884680#0 251884680#1 1126246695#1 339201217 1126244314#0 1126244314#1 54048862#2 831694400#0 831694400#1 23013165 4611698 202156994#0 606078072#1 -534588621#3 -534588621#2 606078071#0 751595929#1 194962375#0 194962375#1 194962375#2"/>
    </vehicle>
    <vehicle id="veh15" type="veh_passenger" depart="157.61" departLane="best">
        <route edges="4610479#0 4610479#1 4610479#2 22972219#0 4610476#2 4610476#4 4610476#5 1159142856#1 15977422#1 -114667396#3 -114667396#2 -114667396#1 -114667396#0 1113726463 1077923225#0 -330840125#1 -330840125#0 1126237668#1 1079495669#1 340498982#0 1170522567#0 251884680#0 251884680#1 1126246695#1 339201217 1126244314#0 1126244314#1 54048862#2 831694400#0 831694400#1 23013165 4611698 202156994#0 4773465#2 1127592486#1 490365295#0 -156364570#4 -156364570#2 -387892378 -370359204#1 -743631784#0 -316746323#4 46140376#0 46140376#1 46140376#2 -84960597#2 -84960597#1 11103418#3 23809678#1 23809678#2 23809678#4"/>
    </vehicle>
    <vehicle id="veh17" type="veh_passenger" depart="178.63" departLane="best">
        <route edges="23852053#2 23852053#3 30721662#0 30721662#1 1121011269#0 1121011269#1 1121011269#2 831659093#0 831659093#1 1173516144#0 1173516144#1 23809670#1 1173516145#1 28016312 -156364570#4 -156364570#2 25294728#0 25294728#1 1102369938 1102369940#1 1110526068 234463931#0 234463931#1 1121012037#1 234463928#0 234463928#1 1133992734#1 188914559 -1133992736#0 -1123151415#3 -1123151415#2 -1123151415#0"/>
    </vehicle>
    <vehicle id="veh18" type="veh_passenger" depart="189.14" departLane="best">
        <route edges="-31313667#1 -31313667#0 -492340367#3 -492340367#1 -492340367#0 492340367#0 492340367#1 492340367#3 31313667#0 31313667#1 31313667#2 1119854969#1 195411606 15977422#1 -114667396#3 -114667396#2 -114667396#1 -114667396#0 1113726463 1077923225#0 -330840125#1 -330840125#0 1126237668#1 1079495669#1 340498982#0 1170522567#0 251884680#0 251884680#1 -4611694#1 -1126465845 -1126465703#0 -1159156576#0 4611696#4 4611696#5 8008608 -1263204721 -120675240#4 -120675240#3 -120675240#2 -43156728#1 -1127596842#0 -1127597264#0 -755551646#0"/>
    </vehicle>
    <vehicle id="veh19" type="veh_passenger" depart="199.64" departLane="best" departSpeed="max">
        <route edges="-1157231003#2 -19002363#5 -19002363#3 -19002363#2 -19002363#1 -19002363#0 -55741054 -62363402 -234463928#0 -1121012037#1 -1121012037#0 -234463931#0 -1110526068 -1102369940#1 -1102369940#0 -25294728#1 -25294728#0 156364570#2 156364570#3 156364556#1 202157002#0 202157002#1 202157002#2 24913519#1 1144362247 541763975 4067932 339201219 541763974 61584187#1 15971197 4611699#0 4611699#1 251884680#0 4611707#1 1195359141 4611693#1 43231842#0 43231842#1 43231842#2 43231842#3 -474362271 66071379#1 448810728 4610524#0 4610524#1 -4610524#1 -4610524#0"/>
    </vehicle>
    <vehicle id="veh20" type="veh_passenger" depart="210.15" departLane="best">
        <route edges="-1263204721 -120675240#4 -120675240#3 -120675240#2 120675240#1 120675240#3 120675240#4 1263204721 -8008608 -4611696#5 -4611696#4 -4611696#3 -23755950#1 -1127602336 -66071366#5 4773029#1 4773029#2 4773029#3 4773029#4 28251222#0 28251222#1 1171295120#1 169195795#0 169195795#1 1217865061#0 114667396#0 114667396#1 114667396#2 114667396#3 -15977422#1 -195411606 -1119854969#1 -1119854969#0 -31313667#1 -31313667#0 -492340367#3 -492340367#1 -492340367#0 -339201185 24243101 1114798610#0 1114798610#1 1198409426#0 1198409426#1 1198409426#2 24243107#0 24243107#1 24243107#2 -6227658#3"/>
    </vehicle>
    <vehicle id="veh21" type="veh_passenger" depart="220.66" departLane="best" departSpeed="max">
        <route edges="195401010 195401013#2 171826985#2 24913519#1 1144362247 541763975 4067932 339201219 541763974 61584187#1 15971197 4611699#0 4611699#1 1149417521#1 169195795#0 169195795#1 1217865061#0 114667396#0 114667396#1 114667396#2 114667396#3 340498976#3 340498976#5 340498976#6 340498976#7 1119838636#1 1119838636#2"/>
    </vehicle>
    <vehicle id="veh22" type="veh_passenger" depart="231.17" departLane="best">
        <route edges="1040930907#2 -950222545 -194962375#3 -194962375#1 -194962375#0 -751595929#2 -751595928#1 -136571494#0 -1127595983 38208961 -202817674#5 -202817674#4 -202817674#3 -202817674#2 120675240#1 120675240#3 120675240#4 1263204721 -8008608 -4611696#5 -4611696#4 -4611696#3 -23755950#1 -1127602336 -1159149106#0 -43231842#3"/>
    </vehicle>
    <vehicle id="veh23" type="veh_passenger" depart="241.67" departLane="best">
        <route edges="-454285423#2 -454285423#0 4610351#0 30721660#1 30721660#3 30721660#4 30721660#5 437325047#0 437325047#1 437325047#2 437325047#3 437325047#6 560370523 437325048#0 -437325054#1 -6227658#3 -6227658#2 -6227658#1 -6227658#0 -1218225317#1 -1218225317#0 1218225317#0 1218225317#1 6227658#0 6227658#1 6227658#2 6227658#3"/>
    </vehicle>
    <vehicle id="veh24" type="veh_passenger" depart="252.18" departLane="best">
        <route edges="-225400578#3 -225400578#2 -225400578#1 437325047#6 560370523 437325048#0 -437325054#1 -24243107#2 -24243107#1 -24243107#0 -1198409426#2 -1198409426#1 -1198409426#0 -1114798610#1 -1114798610#0 -24243101 339201185 492340367#0 492340367#1 492340367#3 31313667#0 31313667#1 31313667#2 1119854969#1 195411606 15977422#1 -114667396#3 -114667396#2 -114667396#1 -114667396#0 1113726463 1077923225#0 -330840125#1 -330840125#0 1126237668#1"/>
    </vehicle>
    <vehicle id="veh25" type="veh_passenger" depart="262.69" departLane="best" departSpeed="max">
        <route edges="83517336#0 153698394#1 -330840125#1 -330840125#0 1126237668#1 1079495669#1 340498982#0 1170522567#0 251884680#0 251884680#1 1126246695#1 339201217 1126244314#0 1126244314#1 54048862#2 831694400#0 831694400#1 23013165 4611698 202156994#0 4773465#2 1127592486#1 490365295#0 -156364570#4 -156364570#2 25294728#0 25294728#1 1102369938 1102369940#1 1110526068 234463931#0 234463931#1 1121012037#1 234463928#0 234463928#1 55741054 1179820254#3 19002363#1 19002363#2 19002363#3 19002363#4 24241790#2"/>
    </vehicle>
    <vehicle id="veh26" type="veh_passenger" depart="273.20" departLane="best">
        <route edges="1332751227#0 82654055 1133457765#0 606078065 1112054538 61583424#1 534588621#0 534588621#3 284493291#0 4773465#2 1127592486#1 490365295#0 -156364570#4 -156364570#2 25294728#0 25294728#1 1102369938 1102369940#1 1110526068 234463931#0 234463931#1 1121012037#1 234463928#0 234463928#1 1133992734#1 188914559 24990040#1"/>
    </vehicle>
    <vehicle id="veh27" type="veh_passenger" depart="283.70" departLane="best">
        <route edges="4611696#2 -4611696#3 -23755950#1 -1127602336 -66071366#5 4773029#1 4773029#2 4773029#3 4773029#4 28251222#0 28251222#1 1171295120#1 169195795#0 169195795#1 1217865061#0 114667396#0 114667396#1 114667396#2 114667396#3 -15977422#1 -195411606 -1119854969#1 -1119854969#0 -31313667#1 -31313667#0 -492340367#3 -492340367#1 -492340367#0 -339201185 24243101 1114798610#0 1114798610#1 1198409426#0 1198409426#1 1198409426#2 24243107#0 24243107#1 24243107#2 437325054#0 -437325048#1 -560370523 -437325047#6 437325047#6 560370523 437325048#0"/>
    </vehicle>
    <vehicle id="veh28" type="veh_passenger" depart="294.21" departLane="best">
        <route edges="-316746323#4 316746323#3 743631784#0 370359204#1 370359204#3 156364570#2 156364570#3 156364556#1 202157002#0 202157002#1 202157002#2 24913519#1 1144362247 541763975 4067932 339201219 541763974 61584187#1 15971197 4611699#0 4611699#1 1149417521#1 -1171295120#1 -1171295120#0 -28251222#0 -4773029#4 -4773029#3 -4773029#2 -4773029#1 -66071366#3 -66071366#2 -66071366#1 -4611706#1 -1105574291#2"/>
    </vehicle>
    <vehicle id="veh29" type="veh_passenger" depart="304.72" departLane="best">
        <route edges="-4773029#3 -4773029#2 -4773029#1 4773029#1 4773029#2 4773029#3 4773029#4 28251222#0 28251222#1 1171295120#1 1170522567#0 251884680#0 251884680#1 1126246695#1 339201217 1126244314#0 1126244314#1 54048862#2 831694400#0 831694400#1 23013165 4611698 202156994#0 606078072#1 -534588621#3 -534588621#2"/>
    </vehicle>
    <vehicle id="veh30" type="veh_passenger" depart="315.23" departLane="best" departSpeed="max">
        <route edges="-24241790#3 -19002363#5 -19002363#3 -19002363#2 -19002363#1 -19002363#0 -55741054 -62363402 -234463928#0 -1121012037#1 -1121012037#0 -234463931#0 -1110526068 -1102369940#1 -1102369940#0 -25294728#1 -25294728#0 156364570#2 156364570#3 156364556#1 202157002#0 202157002#1 202157002#2 24913519#1 1144362247 541763975 4067932 339201219 541763974 61584187#1 15971197 4611699#0 4611699#1 251884680#0 4611707#1 1195359141 4611693#1 43231842#0 43231842#1 43231842#2 43231842#3 -474362271 66071379#1"/>
    </vehicle>
    <vehicle id="veh31" type="veh_passenger" depart="325.74" departLane="best">
        <route edges="490365295#0 -156364570#4 -156364570#2 25294728#0 25294728#1 1102369938 1102369940#1 1110526068 234463931#0 234463931#1 1121012037#1 234463928#0 234463928#1 55741054 1024034687#0 1024034687#1 1024034687#2"/>
    </vehicle>
    <vehicle id="veh32" type="veh_passenger" depart="336.24" departLane="best">
        <route edges="606078071#0 61583424#1 534588621#0 534588621#3 284493291#0 24913519#1 1144362247 541763975 4067932 339201219 541763974 61584187#1 15971197 4611699#0 4611699#1 1149417521#1 1170522567#0"/>
    </vehicle>
    <vehicle id="veh33" type="veh_passenger" depart="346.75" departLane="best">
        <route edges="-437325054#1 -24243107#2 -24243107#1 -24243107#0 -1198409426#2 -1198409426#1 -1198409426#0 -1114798610#1 -1114798610#0 -24243101 339201185 492340367#0 492340367#1 492340367#3 31313667#0 31313667#1 31313667#2 1119854969#1 195411606 15977422#1 -114667396#3 -114667396#2 -114667396#1 -114667396#0 1113726463 1077923225#0 -330840125#1 -330840125#0 66071373#1 1116360926#1 1111982484#0 1111982484#1 1105574291#0 1105574291#1 1105574291#2 4611706#1 -4611706#1"/>
    </vehicle>
    <vehicle id="veh34" type="veh_passenger" depart="357.26" departLane="best">
        <route edges="136571494#0 136571494#1 61583424#1 534588621#0 534588621#3 284493291#0 4773465#2 1127592486#1 490365295#0 -156364570#4 -156364570#2 -387892378 -370359204#1 -743631784#0 -316746323#4 183415643 46140382 1120993114#0 1120993114#2 30721660#1 30721660#3 30721660#4 30721660#5 437325047#0 437325047#1 437325047#2 437325047#3 51167934#1 51167934#2 51167934#3 51167934#4 51167934#5 -51167934#5 -51167934#4 -51167934#3"/>
    </vehicle>
    <vehicle id="veh35" type="veh_passenger" depart="367.77" departLane="best" departSpeed="max">
        <route edges="165415464#0 -437325048#1 -560370523 -437325047#6 -437325047#3 -437325047#2 -437325047#1 -437325047#0 1117432853#1 1117432853#2 4610362#0 4610362#2 4610362#11 30721662#0 30721662#1 1121011269#0 1121011269#1 1121011269#2 831659093#0 831659093#1 1173516144#0 1173516144#1 23809670#1 1173516145#1 28016312 156364556#1 202157002#0 202157002#1 202157002#2 606078072#1 -534588621#3 -534588621#2 606078071#0 61583424#1 534588621#0"/>
    </vehicle>
    <vehicle id="veh36" type="veh_passenger" depart="378.27" departLane="best">
        <route edges="1105574291#2 68647306#2 68647306#3 68647306#4 68647306#5 68647306#6 28251222#0 28251222#1 1171295120#1 1170522567#0 251884680#0 251884680#1 1126246695#1 339201217 1126244314#0 1126244314#1 54048862#2 831694400#0 831694400#1 23013165 4611698 202156994#0 4773465#2 1127592486#1 490365295#0 -156364570#4 -156364570#2 -387892378 -370359204#1 -743631784#0 -316746323#4 183415643 46140382 1120993114#0 1120993114#2 -4610351#0 454285423#0 454285423#2 454285423#3 454285423#4 454285423#5 454285423#6 -454285423#6 -454285423#5 -454285423#4 -454285423#3 -454285423#2 -454285423#0"/>
    </vehicle>
    <vehicle id="veh37" type="veh_passenger" depart="388.78" departLane="best">
        <route edges="84960597#1 84960597#2 83517332#1 316746323#3 743631784#0 370359204#1 370359204#3 156364570#2 156364570#3 156364556#1"/>
    </vehicle>
    <vehicle id="veh38" type="veh_passenger" depart="399.29" departLane="best">
        <route edges="-1305423286#1 -1305423286#0 -51167934#5 -51167934#4 -51167934#3 -51167934#2 -51167934#1 -437325047#3 -437325047#2 -437325047#1 -437325047#0 1117432853#1 1117432853#2 4610362#0 4610362#2 4610362#11 30721662#0 30721662#1 1121011269#0 1121011269#1 1121011269#2 831659093#0 831659093#1 1173516144#0 1173516144#1 23809670#1 1173516145#1 28016312 156364556#1 202157002#0 202157002#1 202157002#2 606078072#1 -534588621#3 -534588621#2 606078071#0 61583423#1 82654059#0 82654059#1 1133457735#1 1133457733 1332751227#0 23812656#1 23812656#3"/>
    </vehicle>
    <vehicle id="veh39" type="veh_passenger" depart="409.80" departLane="best" departSpeed="max">
        <route edges="389101365#1 66071366#1 66071366#2 66071366#3 4773029#1 4773029#2 4773029#3 4773029#4 28251222#0 28251222#1 1171295120#1 1170522567#0 251884680#0 251884680#1 1126246695#1 339201217 1126244314#0 1126244314#1 54048862#2 831694400#0 831694400#1 23013165 4611698 202156994#0 4773465#2 1127592486#1 490365295#0 -156364570#4 -156364570#2 25294728#0 25294728#1 1102369938 1102369940#1 1110526068 234463931#0 234463931#1 1121012037#1 234463928#0 234463928#1 1133992734#1 188914559 1133992873#1"/>
    </vehicle>
    <vehicle id="veh40" type="veh_passenger" depart="420.30" departLane="best">
        <route edges="-114667396#0 1113726463 1077923225#0 -330840125#1 -330840125#0 1126237668#1 1079495669#1 340498982#0 -1171295120#1 -1171295120#0 -28251222#0 -4773029#4 -4773029#3 -4773029#2 -4773029#1 66071366#4 1126241276#1"/>
    </vehicle>
    <vehicle id="veh41" type="veh_passenger" depart="430.81" departLane="best">
        <route edges="83517336#3 340498976#1 -114667396#3 -114667396#2 -114667396#1 -114667396#0 1113726463 1077923225#0 -330840125#1 -330840125#0 1126237668#1 1079495669#1 340498982#0 1170522567#0 251884680#0 251884680#1 1126246695#1 339201217 1126244314#0 1126244314#1 54048862#2 831694400#0 831694400#1 23013165 4611698 202156994#0 4773465#2 1127592486#1 490365295#0 -156364570#4 -156364570#2 -387892378 -370359204#1 168942727#1 168942727#2"/>
    </vehicle>
    <vehicle id="veh42" type="veh_passenger" depart="441.32" departLane="best">
        <route edges="82654059#1 606078065 1112054538 61583424#1 534588621#0 534588621#3 284493291#0 4773465#2 1127592486#1 490365295#0 -156364570#4 -156364570#2 -387892378 -370359204#1 -743631784#0 -316746323#4 183415643 46140382"/>
    </vehicle>
    <vehicle id="veh43" type="veh_passenger" depart="451.83" departLane="best">
        <route edges="-1101961674#2 -1101961674#1 1149417521#1 169195795#0 169195795#1 1217865061#0 1113726463 1077923225#0 -330840125#1 -330840125#0 330840125#0"/>
    </vehicle>
    <vehicle id="veh44" type="veh_passenger" depart="462.33" departLane="best">
        <route edges="23121445#4 23121445#5 831694400#0 831694400#1 23013165 4611698 202156994#0 72157174#1 171826984#2"/>
    </vehicle>
    <vehicle id="veh45" type="veh_passenger" depart="472.84" departLane="best">
        <route edges="-454285423#0 4610351#0 30721660#1 30721660#3 30721660#4 30721660#5 1117432853#1 1117432853#2 4610362#0 4610362#2 4610362#11 30721662#0 30721662#1 1121011269#0 1121011269#1 1121011269#2 831659093#0 831659093#1 1173516144#0 1173516144#1 23809670#1 1173516145#1 28016312 -156364570#4 -156364570#2 25294728#0 25294728#1 1102369938 1102369940#1 1110526068 234463931#0 234463931#1 1121012037#1 234463928#0 234463928#1 55741054 1179820254#3 19002363#1 19002363#2 19002363#3 19002363#4 24241790#2"/>
    </vehicle>
    <vehicle id="veh46" type="veh_passenger" depart="483.35" departLane="best">
        <route edges="-1335908655 -339201177#5 -339201177#4 -339201177#3 -339201177#2 -339201177#1 -339201177#0 -15971189 4610480#1 35578557#2 22972219#0 35578559 195397541#0 195397541#2 195397541#3 195397541#4 195397541#5 137630045#0 137630045#1 1158584613 1151064395#1"/>
    </vehicle>
    <vehicle id="veh47" type="veh_passenger" depart="493.86" departLane="best" departSpeed="max">
        <route edges="1126234503#0 1126237668#1 1079495669#1 340498982#0 1170522567#0 251884680#0 251884680#1 1126246695#1 339201217 1126244314#0 1126244314#1 54048862#2 831694400#0 831694400#1 23013165 4611698 202156994#0 72157174#1"/>
    </vehicle>
    <vehicle id="veh48" type="veh_passenger" depart="504.36" departLane="best">
        <route edges="490365295#0 -156364570#4 -156364570#2 -387892378 -370359204#1 -743631784#0 -316746323#4 183415643 46140382 1120993114#0 1120993114#2 30721660#1 30721660#3 30721660#4 30721660#5 437325047#0 437325047#1 437325047#2 437325047#3 51167934#1 51167934#2 51167934#3 51167934#4 51167934#5 -51167934#5 -51167934#4 -51167934#3"/>
    </vehicle>
    <vehicle id="veh49" type="veh_passenger" depart="514.87" departLane="best">
        <route edges="114667396#3 -15977422#1 -195411606 -1119854969#1 -1119854969#0 -31313667#1 -31313667#0 -492340367#3 -492340367#1 -492340367#0 -339201185 24243101 1114798610#0 1114798610#1 1198409426#0 1198409426#1 1198409426#2 24243107#0 24243107#1 24243107#2 -24243107#2 -24243107#1"/>
    </vehicle>
    <vehicle id="veh50" type="veh_passenger" depart="525.38" departLane="best">
        <route edges="606078065 1112054538 -751595928#1 -136571494#0 -1127595983 38208961 -202817674#5 -202817674#4 -202817674#3 -202817674#2 120675240#1 120675240#3 120675240#4 1263204721 -8008608 -4611696#5 -4611696#4 -4611696#3 -23755950#1 -1127602336 -66071366#5 4773029#1 4773029#2 4773029#3"/>
    </vehicle>
    <vehicle id="veh51" type="veh_passenger" depart="535.89" departLane="best">
        <route edges="-4611693#3 -4611693#1 -4611693#0 -1126465423 4611694#1 1126246695#1 339201217 1126244314#0 1126244314#1 54048862#2 831694400#0 831694400#1 23013165 4611698 202156994#0 4773465#2 1127592486#1 490365295#0 -156364570#4 -156364570#2 25294728#0 25294728#1 1102369938 1102369940#1 1110526068 234463931#0 234463931#1 1121012037#1 234463928#0 234463928#1 55741054 1179820254#3 19002363#1 19002363#2 19002363#3 19002363#4 24241790#2"/>
    </vehicle>
    <vehicle id="veh52" type="veh_passenger" depart="546.39" departLane="best" departSpeed="max">
        <route edges="19002357#0 1179820019#0 1179820253#0 1179820253#1 -55741054 -1133992735#0 -168942727#2 -168942727#1 -743631784#0 -316746323#4 183415643 46140382 1120993114#0 1120993114#2 30721660#1 30721660#3 30721660#4 30721660#5 437325047#0 437325047#1 437325047#2 437325047#3 225400578#1 225400578#2 225400578#3 225400578#4 -225400578#4 -225400578#3"/>
    </vehicle>
    <vehicle id="veh54" type="veh_passenger" depart="567.41" departLane="best">
        <route edges="-1024034687#0 -55741054 -62363402 -234463928#0 -1121012037#1 -1121012037#0 -234463931#0 -1110526068 -1102369940#1 -1102369940#0 -25294728#1 -25294728#0 156364570#2 156364570#3 156364556#1 202157002#0 202157002#1 202157002#2 24913519#1 1144362247 541763975 4067932 339201219 541763974 61584187#1 15971197 4611699#0 4611699#1 1149417521#1 169195795#0 169195795#1 1217865061#0 1113726463 1077923225#0 -330840125#1 -330840125#0 1126237668#1 1079495669#1"/>
    </vehicle>
    <vehicle id="veh55" type="veh_passenger" depart="577.92" departLane="best">
        <route edges="-1102369940#1 -1102369940#0 -25294728#1 -25294728#0 156364570#2 156364570#3 156364556#1 202157002#0 202157002#1 202157002#2 606078072#1 -534588621#3 -534588621#2 606078071#0 61583424#1"/>
    </vehicle>
    <vehicle id="veh56" type="veh_passenger" depart="588.42" departLane="best">
        <route edges="492340367#0 492340367#1 492340367#3 31313667#0 31313667#1 31313667#2 1119854969#1 195411606 15977422#1 -114667396#3 -114667396#2 -114667396#1 -114667396#0 1113726463 1077923225#0 -330840125#1 -330840125#0 1126237668#1 1079495669#1 340498982#0 1170522567#0 251884680#0 251884680#1 1126246695#1 339201217 1126244314#0 1126244314#1 54048862#2 541763974 61584187#1 15971197 4611699#0"/>
    </vehicle>
    <vehicle id="veh57" type="veh_passenger" depart="598.93" departLane="best" departSpeed="max">
        <route edges="-465398529#2 -437325048#1 -560370523 -437325047#6 -437325047#3 -437325047#2 -437325047#1 -437325047#0 1117432853#1 1117432853#2 4610362#0 4610362#2 4610362#11 30721662#0 30721662#1 1121011269#0 1121011269#1 1121011269#2 831659093#0 831659093#1 1173516144#0 1173516144#1 23809670#1 1173516145#1 28016312 156364556#1 202157002#0 202157002#1 202157002#2 606078072#1 -534588621#3 -534588621#2 606078071#0 -751595928#1 -136571494#0 -1127595983 38208961 -202817674#5 -202817674#4 -202817674#3 -202817674#2 -43156728#1 -1127596842#0 -1127597264#0"/>
    </vehicle>
    <vehicle id="veh58" type="veh_passenger" depart="609.44" departLane="best">
        <route edges="490365295#0 156364556#1 202157002#0 202157002#1 202157002#2 24913519#1 1144362247 541763975 4067932 339201219 541763974 61584187#1 15971197 4611699#0 4611699#1 1149417521#1 -1171295120#1 -1171295120#0 -28251222#0 -4773029#4 -4773029#3 -4773029#2 -4773029#1 -66071366#3 -66071366#2 -66071366#1 -4611706#1 68647306#2 68647306#3 68647306#4"/>
    </vehicle>
    <vehicle id="veh59" type="veh_passenger" depart="619.95" departLane="best" departSpeed="max">
        <route edges="-11549895 -23851930 1320422402 1320422400#0 82654055 1133457765#0 606078065 1112054538 -751595928#1 -136571494#0 -1127595983 38208961"/>
    </vehicle>
    <vehicle id="veh60" type="veh_passenger" depart="630.45" departLane="best">
        <route edges="339201219 831694400#0 831694400#1 23013165 4611698 202156994#0 4773465#2 1127592486#1 490365295#0 -156364570#4 -156364570#2 25294728#0 25294728#1 1102369938 1102369940#1 1110526068 234463931#0 234463931#1 1121012037#1 234463928#0 234463928#1 55741054 1179820254#3 19002363#1 19002363#2 19002363#3 19002363#4 -19002363#5 -19002363#3 -19002363#2 -19002363#1"/>
    </vehicle>
    <vehicle id="veh61" type="veh_passenger" depart="640.96" departLane="best">
        <route edges="1127596842#2 202817674#1 202817674#3 202817674#4 202817674#5 -38208961 1127595983 136571494#0 136571494#1 751595929#1 194962375#0"/>
    </vehicle>
    <vehicle id="veh62" type="veh_passenger" depart="651.47" departLane="best">