<?xml version="1.0" encoding="UTF-8"?>

<!-- generated on 2025-03-16 23:15:55 by Eclipse SUMO polyconvert Version 1.22.0
<polyconvertConfiguration xmlns:xsi="http://www.w3.org/2001/XMLSchema-instance" xsi:noNamespaceSchemaLocation="http://sumo.dlr.de/xsd/polyconvertConfiguration.xsd">

    <input>
        <net-file value="osm.net.xml"/>
        <osm-files value="osm_bbox.osm.xml"/>
        <osm.keep-full-type value="true"/>
        <type-file value="C:\Program%20Files%20(x86)\Eclipse\Sumo\data\typemap\osmPolyconvert.typ.xml"/>
    </input>

    <output>
        <output-file value="osm.poly.xml"/>
    </output>

    <report>
        <verbose value="true"/>
    </report>

</polyconvertConfiguration>
-->

<additional xmlns:xsi="http://www.w3.org/2001/XMLSchema-instance" xsi:noNamespaceSchemaLocation="http://sumo.dlr.de/xsd/additional_file.xsd">
    <location netOffset="-520659.53,-4069840.27" convBoundary="-773.28,-3113.66,8295.51,4185.76" origBoundary="3.222953,36.745942,3.324520,36.811870" projParameter="+proj=utm +zone=31 +ellps=WGS84 +datum=WGS84 +units=m +no_defs"/>

    <poly id="1023914683" type="building.yes" color="255,230,230" fill="1" layer="-1.00" shape="1053.857650,528.662598 1065.004978,527.870067 1064.433947,513.813769 1052.814876,514.128101 1053.857650,528.662598"/>
    <poly id="1052051485" type="natural.grassland" color="140,196,107" fill="1" layer="-4.00" shape="1729.911963,957.312268 1810.406951,946.730218 1812.118658,947.300467 1811.088350,948.884058 1730.816424,959.477780 1727.963196,958.671600 1729.911963,957.312268"/>
    <poly id="1052051486" type="natural.grassland" color="140,196,107" fill="1" layer="-4.00" shape="1836.940716,944.526019 1837.871036,943.641028 1841.021813,943.272168 1882.553221,938.400950 1886.551620,938.056530 1886.859997,939.543810 1885.369227,939.783920 1841.151769,944.747883 1838.099290,945.061537 1836.940716,944.526019"/>
    <poly id="1052051489" type="amenity.parking" color="184,184,179" fill="1" layer="-1.00" shape="1886.861012,1010.117650 1885.603830,1009.759354 1877.401815,1010.469839 1875.839574,990.464987 1880.497888,990.255423 1885.486846,989.858154 1886.861012,1010.117650"/>
    <poly id="1052051490" type="amenity.parking" color="184,184,179" fill="1" layer="-1.00" shape="1873.440096,969.881089 1874.276448,984.315325 1879.916749,983.930864 1879.624467,969.586808 1873.440096,969.881089"/>
    <poly id="1052051491" type="natural.grassland" color="140,196,107" fill="1" layer="-4.00" shape="1900.634458,937.150823 1902.603313,938.331886 1914.403003,936.998633 1915.790043,935.493649 1913.820133,934.711929 1902.216744,936.045701 1900.634458,937.150823"/>
    <poly id="1052051492" type="natural.grassland" color="140,196,107" fill="1" layer="-4.00" shape="1933.838271,933.234039 1934.175844,933.800677 1934.307985,934.444422 1934.217024,935.098670 1933.921042,935.674724 1933.438001,936.128260 1932.839433,936.404002 1932.178991,936.457719 1931.563721,936.300789 1931.029227,935.966584 1930.637910,935.477456 1930.416422,934.877846 1930.400250,934.245501 1930.580293,933.646954 1930.956434,933.126577 1931.466009,932.761855 1932.073266,932.574880 1932.706763,932.587650 1933.330751,932.822254 1933.838271,933.234039"/>
    <poly id="1052051493" type="natural.grassland" color="140,196,107" fill="1" layer="-4.00" shape="1937.560868,959.556551 1936.074268,961.593733 1943.442985,1022.880030 1945.611847,1022.652819 1937.560868,959.556551"/>
    <poly id="1052051495" type="amenity.parking" color="184,184,179" fill="1" layer="-1.00" shape="1935.178075,963.066734 1927.350127,964.022209 1934.512037,1022.556879 1942.348826,1021.612528 1935.178075,963.066734"/>
    <poly id="1052051496" type="natural.grassland" color="140,196,107" fill="1" layer="-4.00" shape="1952.385898,931.086721 1954.345825,932.267772 1966.154454,930.934615 1967.532581,929.429615 1965.562675,928.647883 1953.959269,929.981585 1952.385898,931.086721"/>
    <poly id="1052051497" type="natural.grassland" color="140,196,107" fill="1" layer="-4.00" shape="1988.901428,926.701922 1990.861350,927.882982 2002.669992,926.549875 2004.048126,925.044881 2002.078222,924.263141 1990.474804,925.596793 1988.901428,926.701922"/>
    <poly id="1052051498" type="natural.grassland" color="140,196,107" fill="1" layer="-4.00" shape="2074.739279,917.112721 2076.699192,918.293801 2088.507861,916.960812 2089.886012,915.455832 2087.916113,914.674072 2076.312669,916.007608 2074.739279,917.112721"/>
    <poly id="1052051499" type="natural.grassland" color="140,196,107" fill="1" layer="-4.00" shape="2007.761033,924.688668 2009.729876,925.869756 2021.529630,924.525558 2022.907739,923.031660 2020.946788,922.238846 2009.334412,923.583542 2007.761033,924.688668"/>
    <poly id="1052051500" type="natural.grassland" color="140,196,107" fill="1" layer="-4.00" shape="2044.971222,920.827325 2046.931138,922.008398 2058.739827,920.664275 2060.117942,919.170384 2058.156994,918.377561 2046.544607,919.722207 2044.971222,920.827325"/>
    <poly id="1052051501" type="natural.grassland" color="140,196,107" fill="1" layer="-4.00" shape="2026.969113,922.498892 2028.937954,923.679985 2040.737685,922.346906 2042.115827,920.841919 2040.154848,920.060193 2028.551418,921.393794 2026.969113,922.498892"/>
    <poly id="1064332499" type="building.yes" color="255,230,230" fill="1" layer="-1.00" shape="589.315898,2704.001116 582.615827,2704.128643 582.623533,2704.616757 577.591783,2704.715163 577.694643,2709.984614 577.025537,2709.994042 577.200266,2718.647052 580.759953,2718.578260 580.585228,2709.925251 582.735311,2709.886231 582.847006,2715.188984 592.401995,2714.990915 592.259319,2707.802267 600.556365,2707.634353 600.476773,2703.773775 592.179722,2703.941689 589.315898,2704.001116"/>
    <poly id="1064332500" type="building.yes" color="255,230,230" fill="1" layer="-1.00" shape="589.783349,2720.486543 585.090635,2720.574696 585.273254,2729.638168 587.726675,2729.588811 587.878027,2736.877319 592.106812,2736.799105 595.880624,2736.719760 595.825085,2733.946361 592.051271,2734.025706 591.955463,2729.510598 596.318094,2729.421627 596.285699,2728.101474 601.219304,2728.002834 601.084313,2721.313392 596.632467,2721.402139 596.576762,2718.695297 589.742860,2718.833579 589.783349,2720.486543"/>
    <poly id="1064332501" type="building.yes" color="255,230,230" fill="1" layer="-1.00" shape="629.623465,2724.656995 626.224357,2724.726167 626.447083,2735.575720 652.774514,2735.042411 652.551821,2724.192857 641.266077,2724.419817 641.131172,2717.708188 629.479630,2717.945344 629.623465,2724.656995"/>
    <poly id="1064332502" type="building.yes" color="255,230,230" fill="1" layer="-1.00" shape="600.985283,2761.059525 600.170168,2755.222552 587.872720,2756.922437 589.301207,2767.220340 597.814787,2766.054589 597.884856,2766.576137 605.434639,2765.541109 604.742321,2760.547514 600.985283,2761.059525"/>
    <poly id="1064332506" type="building.yes" color="255,230,230" fill="1" layer="-1.00" shape="569.075989,2803.566281 567.756212,2803.352230 566.922515,2808.563887 579.023543,2810.479816 579.857275,2805.257067 576.593451,2804.749756 578.795616,2790.944396 571.278170,2789.749825 569.075989,2803.566281"/>
    <poly id="1064332509" type="building.yes" color="255,230,230" fill="1" layer="-1.00" shape="534.064598,2766.217711 532.263495,2765.836074 532.696661,2763.840402 532.143863,2763.717005 532.477769,2762.175901 527.136904,2761.031148 526.802998,2762.572252 523.147319,2761.786663 520.728682,2772.984634 530.278040,2775.027277 530.566790,2773.707922 536.282135,2774.931259 537.978845,2767.059412 537.738116,2767.003349 538.216385,2764.808114 534.542866,2764.022476 534.064598,2766.217711"/>
    <poly id="1064332510" type="building.yes" color="255,230,230" fill="1" layer="-1.00" shape="503.074145,2733.338663 503.102779,2732.584407 503.266129,2727.870269 501.517745,2727.810467 501.546626,2726.956375 496.417419,2726.788354 496.234113,2732.356607 493.531263,2732.261162 493.405995,2736.010300 499.480742,2736.213943 499.650214,2736.225457 499.563241,2738.920851 507.992942,2739.207991 508.185479,2733.517737 503.074145,2733.338663"/>
    <poly id="1064332511" type="building.yes" color="255,230,230" fill="1" layer="-1.00" shape="527.445575,2708.572909 520.396900,2708.976946 520.875993,2717.231360 531.127811,2716.635602 531.307659,2719.653357 537.838851,2719.270229 537.556388,2714.466240 537.021043,2714.498189 536.798520,2710.703815 537.101891,2710.682383 536.793739,2705.445700 534.125931,2705.605470 533.913617,2704.883895 530.851409,2705.797012 526.958966,2706.941023 527.445575,2708.572909"/>
    <poly id="1064332512" type="building.yes" color="255,230,230" fill="1" layer="-1.00" shape="541.761223,2727.621943 552.860666,2726.972852 552.654972,2723.588962 551.405834,2723.663509 551.252011,2720.945330 558.648681,2720.508905 558.143662,2711.932726 550.746984,2712.369152 550.584378,2709.595487 548.898051,2709.691133 548.778257,2707.638622 539.293748,2708.191893 539.961534,2719.486270 544.262109,2719.241816 544.544512,2724.067992 541.564446,2724.238076 541.761223,2727.621943"/>
    <poly id="1064332513" type="building.yes" color="255,230,230" fill="1" layer="-1.00" shape="483.887865,2786.149456 496.697522,2786.525091 496.775656,2783.796396 501.360732,2783.929789 501.672227,2773.436541 497.087146,2773.303148 497.272432,2766.936200 486.443067,2766.620937 486.257789,2772.987885 484.277468,2772.927513 483.887865,2786.149456"/>
    <poly id="1064332514" type="building.yes" color="255,230,230" fill="1" layer="-1.00" shape="511.396979,2801.869951 512.358126,2799.210005 505.468310,2796.741350 506.537223,2793.793251 510.129205,2795.077862 511.458644,2791.398270 503.089261,2788.393479 501.813736,2791.917904 501.287867,2791.728018 500.156123,2794.831264 499.327217,2794.529697 495.383908,2805.413290 498.476754,2806.519169 495.108353,2815.806790 505.046420,2819.370115 507.947778,2811.357041 511.406048,2812.596948 514.837438,2803.098723 511.396979,2801.869951"/>
    <poly id="1064332516" type="building.yes" color="255,230,230" fill="1" layer="-1.00" shape="578.367799,2729.853932 583.381693,2729.755482 583.286239,2725.096166 578.272343,2725.194616 578.367799,2729.853932"/>
    <poly id="1064332517" type="building.yes" color="255,230,230" fill="1" layer="-1.00" shape="585.763690,2736.894240 585.652716,2731.303069 580.754797,2731.401807 580.865774,2736.992977 585.763690,2736.894240"/>
    <poly id="1064332518" type="building.yes" color="255,230,230" fill="1" layer="-1.00" shape="611.498133,2734.462417 611.347327,2726.963143 606.485089,2727.061954 606.644821,2734.561251 611.498133,2734.462417"/>
    <poly id="1064332519" type="building.yes" color="255,230,230" fill="1" layer="-1.00" shape="612.960247,2724.105158 613.222645,2736.940465 622.732978,2736.753412 622.479543,2723.907034 612.960247,2724.105158"/>
    <poly id="1064332520" type="building.yes" color="255,230,230" fill="1" layer="-1.00" shape="608.761732,2712.036553 608.713431,2709.939847 608.689986,2708.608623 608.547157,2701.486533 604.514618,2701.565228 604.666371,2708.687340 602.632261,2708.726644 602.695061,2712.165644 602.918287,2722.826616 611.045792,2722.669383 610.831525,2711.997340 608.761732,2712.036553"/>
    <poly id="1064332521" type="building.yes" color="255,230,230" fill="1" layer="-1.00" shape="619.445825,2713.394355 619.358261,2709.156593 621.731370,2709.118139 621.563892,2701.152916 612.053519,2701.339970 612.221007,2709.305194 612.308575,2713.542955 614.654948,2713.493339 614.822239,2721.536214 622.298482,2721.388461 622.131198,2713.345586 619.445825,2713.394355"/>
    <poly id="1064332522" type="building.yes" color="255,230,230" fill="1" layer="-1.00" shape="625.575557,2705.866372 623.889367,2705.906539 624.104365,2716.279071 629.849848,2716.160288 629.658548,2707.019142 631.184131,2706.989669 631.041100,2699.956322 625.456212,2700.064412 625.575557,2705.866372"/>
    <poly id="1064332523" type="building.yes" color="255,230,230" fill="1" layer="-1.00" shape="652.217283,2715.262120 653.359232,2715.242786 653.089191,2701.919365 645.496929,2702.077894 645.632578,2708.490013 642.617097,2708.549043 642.458504,2700.606027 632.876734,2700.803973 633.074848,2710.788208 636.607777,2710.719373 636.702703,2715.578363 645.767009,2715.390222 652.217283,2715.262120"/>
    <poly id="1064332524" type="building.ruins" color="255,230,230" fill="1" layer="-1.00" shape="633.014207,2788.716699 630.275903,2795.687393 644.740633,2801.325483 647.478946,2794.354795 633.014207,2788.716699"/>
    <poly id="1064332524#1" type="historic.building" color="128,255,128" fill="1" layer="-1.00" shape="633.014207,2788.716699 630.275903,2795.687393 644.740633,2801.325483 647.478946,2794.354795 633.014207,2788.716699"/>
    <poly id="1064332525" type="building.ruins" color="255,230,230" fill="1" layer="-1.00" shape="634.766806,2769.208405 639.724889,2755.720543 629.127339,2751.878090 624.169299,2765.354865 634.766806,2769.208405"/>
    <poly id="1064332525#1" type="historic.building" color="128,255,128" fill="1" layer="-1.00" shape="634.766806,2769.208405 639.724889,2755.720543 629.127339,2751.878090 624.169299,2765.354865 634.766806,2769.208405"/>
    <poly id="1064332527" type="building.yes" color="255,230,230" fill="1" layer="-1.00" shape="589.045473,2787.519977 589.228698,2789.173297 590.118553,2797.240157 598.060415,2796.372495 597.170567,2788.305634 600.963028,2787.893546 600.020873,2779.338461 588.286503,2780.629305 589.045473,2787.519977"/>
    <poly id="1064332528" type="building.yes" color="255,230,230" fill="1" layer="-1.00" shape="587.839518,2770.256195 588.934945,2778.168264 599.429690,2776.719029 598.325323,2768.818030 587.839518,2770.256195"/>
    <poly id="1064332529" type="building.yes" color="255,230,230" fill="1" layer="-1.00" shape="589.246805,2749.659915 589.439531,2751.080304 589.956589,2754.808855 596.970955,2753.839045 596.453873,2750.121586 601.353219,2749.446024 600.064991,2740.146842 588.151263,2741.792218 589.246805,2749.659915"/>
    <poly id="1064332532" type="building.yes" color="255,230,230" fill="1" layer="-1.00" shape="555.655733,2772.505656 550.268204,2772.192751 549.933042,2777.827184 555.329488,2778.140112 555.022023,2783.397451 567.804009,2784.139194 567.990431,2780.922674 571.540510,2781.120089 572.286068,2768.309477 568.735984,2768.112062 568.875843,2765.683033 560.214748,2765.184489 560.009907,2768.633917 555.897911,2768.390738 555.655733,2772.505656"/>
    <poly id="1064332533" type="building.yes" color="255,230,230" fill="1" layer="-1.00" shape="514.786497,2751.726707 525.307057,2754.259848 526.424692,2749.659009 515.895205,2747.125845 514.786497,2751.726707"/>
    <poly id="1064332534" type="building.yes" color="255,230,230" fill="1" layer="-1.00" shape="499.683800,2722.680934 494.037225,2722.489445 493.941085,2725.284654 515.448041,2726.003579 515.535239,2723.219442 508.907434,2722.992229 509.138821,2716.026372 499.915179,2715.715076 499.683800,2722.680934"/>
    <poly id="1064332535" type="building.yes" color="255,230,230" fill="1" layer="-1.00" shape="504.080281,2726.929379 503.936258,2731.044541 509.573934,2731.224921 509.709011,2727.120830 504.080281,2726.929379"/>
    <poly id="1064332536" type="building.yes" color="255,230,230" fill="1" layer="-1.00" shape="515.716930,2711.117382 515.466071,2718.737680 519.622945,2718.881113 519.882756,2711.249744 515.716930,2711.117382"/>
    <poly id="1064332537" type="building.yes" color="255,230,230" fill="1" layer="-1.00" shape="532.085135,2722.705875 532.581644,2731.126728 539.844434,2730.712140 539.347959,2722.280193 532.085135,2722.705875"/>
    <poly id="1064332538" type="building.yes" color="255,230,230" fill="1" layer="-1.00" shape="520.480328,2722.089131 521.002346,2731.020327 530.816934,2730.456763 530.294954,2721.514473 520.480328,2722.089131"/>
    <poly id="1064332540" type="building.yes" color="255,230,230" fill="1" layer="-1.00" shape="468.052949,2717.732712 468.173015,2716.080146 461.875858,2715.620835 461.460490,2721.243979 457.794576,2720.979766 457.268453,2728.100198 461.906564,2728.444469 461.759022,2730.385386 463.632108,2730.523139 463.770757,2728.571107 465.064059,2728.674146 464.768617,2732.700189 474.392726,2733.400696 475.500698,2718.283622 468.052949,2717.732712"/>
    <poly id="1064332541" type="building.yes" color="255,230,230" fill="1" layer="-1.00" shape="473.877638,2746.866375 475.051814,2755.444206 481.762688,2754.540108 480.579624,2745.951160 473.877638,2746.866375"/>
    <poly id="1064332542" type="building.yes" color="255,230,230" fill="1" layer="-1.00" shape="502.221016,2778.773656 501.977854,2786.893162 505.554915,2787.001871 505.789159,2778.882344 502.221016,2778.773656"/>
    <poly id="1064332579" type="leisure.swimming_pool" color="207,245,201" fill="1" layer="-2.00" shape="503.411371,2755.636518 509.853910,2762.208488 513.201650,2761.262792 515.124095,2759.481582 515.004239,2757.451258 503.888613,2753.851722 503.411371,2755.636518"/>
    <poly id="1064332580" type="leisure.swimming_pool" color="207,245,201" fill="1" layer="-2.00" shape="524.027562,2737.816780 524.840691,2748.068771 529.989159,2747.660019 529.176036,2737.408027 524.027562,2737.816780"/>
    <poly id="1064332581" type="building.yes" color="255,230,230" fill="1" layer="-1.00" shape="549.420699,2743.481844 555.362397,2743.374591 555.166813,2732.336526 549.225108,2732.443779 549.420699,2743.481844"/>
    <poly id="1064332582" type="building.yes" color="255,230,230" fill="1" layer="-1.00" shape="537.806307,2732.371033 538.495785,2745.706585 549.505801,2745.134920 549.420699,2743.481844 548.807418,2731.799344 537.806307,2732.371033"/>
    <poly id="107495979" type="natural.wood" color="140,196,107" fill="1" layer="-4.00" shape="3024.127038,2824.348480 3013.639999,2810.020412 3007.960964,2786.187840 3007.992686,2774.750974 3027.187420,2756.689255 3045.385282,2753.888872 3067.435837,2738.697188 3095.240514,2723.532671 3111.428997,2715.124835 3115.290244,2731.708637 3127.060123,2743.455719 3133.209478,2761.676590 3131.794361,2786.077397 3185.593919,2800.027350 3274.169122,2740.228541 3299.034719,2748.873265 3312.404643,2759.393767 3292.273504,2770.774192 3097.552275,2921.761176 3081.361192,2895.980185 3055.610153,2862.551711 3041.279240,2851.086031 3024.127038,2824.348480"/>
    <poly id="107495985" type="landuse.cemetery" color="194,194,130" fill="1" layer="-3.00" shape="2945.263387,2615.424991 2870.705742,2580.908231 2851.088225,2752.397316 2815.627240,2768.495561 2841.240397,2852.429653 2998.330623,2807.127034 2988.867733,2770.881934 2996.529882,2768.041161 2945.263387,2615.424991"/>
    <poly id="1087953536" type="landuse.recreation_ground" color="194,194,130" fill="1" layer="-3.00" shape="1869.770626,1214.150993 1871.053584,1228.397830 1893.713611,1226.361079 1892.430661,1212.125331 1886.808034,1212.631853 1869.770626,1214.150993"/>
    <poly id="1087953536#1" type="leisure.playground" color="207,245,201" fill="1" layer="-2.00" shape="1869.770626,1214.150993 1871.053584,1228.397830 1893.713611,1226.361079 1892.430661,1212.125331 1886.808034,1212.631853 1869.770626,1214.150993"/>
    <poly id="1087953537" type="landuse.recreation_ground" color="194,194,130" fill="1" layer="-3.00" shape="1932.788233,1205.276704 1934.322474,1222.308567 1961.471666,1219.884529 1959.937478,1202.852660 1932.788233,1205.276704"/>
    <poly id="1087953537#1" type="leisure.playground" color="207,245,201" fill="1" layer="-2.00" shape="1932.788233,1205.276704 1934.322474,1222.308567 1961.471666,1219.884529 1959.937478,1202.852660 1932.788233,1205.276704"/>
    <poly id="1087953541" type="leisure.garden" color="207,245,201" fill="1" layer="-2.00" shape="1859.356544,1177.438865 1864.765252,1230.965913 1967.438777,1220.699040 1962.039657,1167.160856 1900.608259,1173.310236 1859.356544,1177.438865"/>
    <poly id="1087964589" type="building.yes" color="255,230,230" fill="1" layer="-1.00" shape="2241.016692,528.801984 2241.093282,533.516724 2248.946200,533.393578 2248.701334,518.228759 2245.078277,518.285598 2245.024829,514.924269 2239.179766,515.008430 2239.410432,528.819862 2241.016692,528.801984"/>
    <poly id="1087964590" type="building.yes" color="255,230,230" fill="1" layer="-1.00" shape="2302.790892,509.821316 2302.675178,503.076447 2279.544659,503.446908 2279.720901,514.240892 2296.702874,513.975924 2296.795192,519.467219 2303.675450,519.352602 2303.522637,509.812191 2302.790892,509.821316"/>
    <poly id="1087964591" type="building.yes" color="255,230,230" fill="1" layer="-1.00" shape="2219.389386,574.303056 2226.100026,574.199015 2225.924342,563.172079 2196.806160,563.637648 2196.990805,574.664607 2199.873175,574.616858 2200.087955,587.718293 2219.604137,587.404492 2219.389386,574.303056"/>
    <poly id="1087964592" type="building.yes" color="255,230,230" fill="1" layer="-1.00" shape="2208.104872,503.011251 2208.272579,513.694280 2218.722358,513.522597 2236.293300,513.247993 2236.109894,501.777316 2219.208210,502.042620 2219.063245,492.868302 2210.398204,493.011487 2210.558916,502.973451 2208.104872,503.011251"/>
    <poly id="1087964593" type="building.house" color="255,230,230" fill="1" layer="-1.00" shape="2090.209230,733.863851 2090.401008,745.611876 2100.654163,745.450619 2100.768730,752.683577 2105.712365,752.608011 2105.597801,745.375054 2113.629014,745.241167 2113.446190,733.493166 2090.209230,733.863851"/>
    <poly id="1087964594" type="building.house" color="255,230,230" fill="1" layer="-1.00" shape="2155.628825,642.299087 2155.766887,650.741248 2162.870087,650.638207 2162.732062,642.184953 2162.609955,634.452789 2152.106786,634.624398 2152.045861,630.708398 2145.290621,630.823470 2145.451582,640.718877 2150.645162,640.632912 2150.667280,642.374576 2155.628825,642.299087"/>
    <poly id="1087964595" type="building.yes" color="255,230,230" fill="1" layer="-1.00" shape="2112.106214,643.713747 2112.251349,652.865878 2117.230735,652.790415 2121.987040,652.714359 2121.910298,648.032898 2117.153990,648.108954 2117.085605,643.638283 2112.106214,643.713747"/>
    <poly id="1087964596" type="building.yes" color="255,230,230" fill="1" layer="-1.00" shape="2135.384719,674.669930 2143.380276,674.547069 2143.234138,665.783190 2127.242978,666.040012 2127.389132,674.803891 2132.172195,674.727913 2132.257411,679.575792 2135.469903,679.528902 2135.384719,674.669930"/>
    <poly id="1087964597" type="building.house" color="255,230,230" fill="1" layer="-1.00" shape="2085.897009,691.188591 2086.210762,710.746429 2093.144401,710.631785 2101.113154,710.508814 2100.944077,700.291688 2092.975315,700.414659 2092.821710,691.085017 2085.897009,691.188591"/>
    <poly id="1087964598" type="building.house" color="255,230,230" fill="1" layer="-1.00" shape="2156.492729,602.843511 2156.553889,606.670767 2171.715269,606.422873 2171.890755,617.549645 2162.895681,617.691994 2162.734947,607.718936 2154.569756,607.852419 2154.730529,617.814384 2158.630164,617.758246 2158.714328,622.994378 2173.536566,622.756674 2173.452411,617.520542 2176.290151,617.472665 2176.114641,606.356986 2176.053490,602.529729 2156.492729,602.843511"/>
    <poly id="1087964599" type="building.house" color="255,230,230" fill="1" layer="-1.00" shape="2107.494001,623.212634 2117.265448,623.050111 2116.998406,606.077074 2107.218016,606.239573 2107.364193,615.003451 2089.927285,615.289768 2089.819471,608.866621 2080.342506,609.018866 2080.464805,616.706657 2089.227873,616.563603 2089.343251,623.497049 2107.494001,623.212634"/>
    <poly id="1087964600" type="building.house" color="255,230,230" fill="1" layer="-1.00" shape="2080.058842,591.557693 2080.288255,605.934861 2087.105976,605.819904 2087.114013,606.152716 2092.450385,606.067096 2092.565642,613.044914 2105.023116,612.845163 2104.908017,605.811879 2095.573849,605.953396 2095.443999,597.755306 2090.179008,597.841114 2090.080147,591.406898 2080.058842,591.557693"/>
    <poly id="1087964601" type="building.yes" color="255,230,230" fill="1" layer="-1.00" shape="2159.993695,548.286287 2159.710132,530.847298 2151.303937,530.980140 2151.388403,536.105342 2144.829432,536.209847 2144.913428,541.512536 2151.472395,541.408031 2151.587517,548.419129 2159.993695,548.286287"/>
    <poly id="1087964602" type="building.yes" color="255,230,230" fill="1" layer="-1.00" shape="2129.390476,536.767653 2129.688987,555.315983 2136.212250,555.211371 2136.342950,563.076673 2153.726397,562.801400 2153.550353,551.874302 2140.298584,552.082956 2140.045462,536.596421 2129.390476,536.767653"/>
    <poly id="1087964603" type="building.yes" color="255,230,230" fill="1" layer="-1.00" shape="2112.097568,556.611309 2112.220314,564.121612 2105.857677,564.226670 2105.950117,569.717962 2112.312750,569.612905 2112.373368,573.650926 2124.982596,573.451608 2124.706821,556.411990 2112.097568,556.611309"/>
    <poly id="1087964604" type="building.yes" color="255,230,230" fill="1" layer="-1.00" shape="2117.673506,550.358623 2126.356333,550.215392 2126.157805,537.668655 2104.847837,538.011167 2105.055320,550.557928 2106.179717,550.538739 2106.240664,554.454739 2117.743370,554.274646 2117.673506,550.358623"/>
    <poly id="1087964605" type="building.house" color="255,230,230" fill="1" layer="-1.00" shape="2073.742360,534.112301 2073.950037,546.603596 2079.518482,546.507492 2079.649205,554.383886 2073.456104,554.489419 2073.761620,573.803184 2080.579367,573.688221 2080.296500,555.927539 2085.472284,555.841487 2085.318933,546.412010 2085.120167,533.931831 2073.742360,534.112301"/>
    <poly id="1087964606" type="building.yes" color="255,230,230" fill="1" layer="-1.00" shape="2256.188426,454.918784 2256.257217,459.211968 2262.521777,459.106758 2262.452990,454.813574 2256.188426,454.918784"/>
    <poly id="1087964607" type="building.yes" color="255,230,230" fill="1" layer="-1.00" shape="2245.676987,504.664973 2245.852617,515.703001 2262.754275,515.437750 2262.578696,504.388628 2245.676987,504.664973"/>
    <poly id="1087964608" type="building.yes" color="255,230,230" fill="1" layer="-1.00" shape="2256.853916,529.476773 2256.709469,520.124967 2253.773539,520.172554 2253.917990,529.524360 2256.853916,529.476773"/>
    <poly id="1087964609" type="building.yes" color="255,230,230" fill="1" layer="-1.00" shape="2259.396527,519.710644 2259.534222,528.252641 2270.385535,528.082098 2270.247851,519.540101 2259.396527,519.710644"/>
    <poly id="1087964610" type="building.house" color="255,230,230" fill="1" layer="-1.00" shape="2325.427574,570.250453 2325.357864,566.312241 2336.164515,566.141662 2336.324749,576.225653 2352.467782,575.969630 2352.253743,562.679610 2339.028753,562.888027 2338.990411,560.558389 2334.635630,560.624312 2334.497653,552.215428 2328.839974,552.311125 2328.969034,560.719985 2325.274607,560.776598 2325.227846,558.258356 2317.267869,558.381143 2317.527413,574.677494 2322.872732,574.592042 2322.926387,577.864628 2332.956667,577.703049 2332.834295,570.126183 2325.427574,570.250453"/>
    <poly id="1087964611" type="building.yes" color="255,230,230" fill="1" layer="-1.00" shape="2303.442809,562.725698 2303.572401,570.945978 2316.226256,570.747062 2316.087753,562.526759 2303.442809,562.725698"/>
    <poly id="1087964612" type="building.yes" color="255,230,230" fill="1" layer="-1.00" shape="2301.908793,552.471619 2302.046504,560.991432 2311.461066,560.839264 2311.323334,552.330545 2301.908793,552.471619"/>
    <poly id="1087964613" type="building.yes" color="255,230,230" fill="1" layer="-1.00" shape="2284.584644,560.556239 2284.615181,562.475414 2284.769355,571.516643 2289.463245,571.440513 2289.516704,574.790750 2299.341752,574.628579 2299.242242,568.493869 2292.362054,568.597397 2292.262838,562.351757 2299.134137,562.237113 2298.958458,551.243454 2284.439483,551.481756 2284.584644,560.556239"/>
    <poly id="1087964614" type="building.yes" color="255,230,230" fill="1" layer="-1.00" shape="2279.810377,537.403365 2279.979214,547.631586 2291.749665,547.441354 2291.589765,537.213157 2279.810377,537.403365"/>
    <poly id="1087964615" type="building.yes" color="255,230,230" fill="1" layer="-1.00" shape="2263.826202,564.882232 2264.001837,575.909169 2273.362842,575.756816 2273.187189,564.740971 2263.826202,564.882232"/>
    <poly id="1087964616" type="building.yes" color="255,230,230" fill="1" layer="-1.00" shape="2260.519337,546.880471 2260.687334,557.430387 2270.182208,557.278390 2270.014223,546.728473 2260.519337,546.880471"/>
    <poly id="1087964617" type="building.yes" color="255,230,230" fill="1" layer="-1.00" shape="2264.736684,534.855862 2264.882612,543.653021 2275.965942,543.472015 2275.828919,534.685973 2264.736684,534.855862"/>
    <poly id="1087964618" type="building.yes" color="255,230,230" fill="1" layer="-1.00" shape="2228.398448,565.630269 2228.574010,576.701577 2241.174315,576.502406 2240.989876,565.419981 2228.398448,565.630269"/>
    <poly id="1087964619" type="building.yes" color="255,230,230" fill="1" layer="-1.00" shape="2178.328341,552.705954 2178.412732,557.853342 2184.257794,557.758046 2184.173407,552.610658 2191.633651,552.497503 2191.734366,558.210679 2195.750031,558.154868 2195.596030,549.013805 2195.402934,537.809335 2178.090821,538.084715 2178.273711,549.777250 2178.328341,552.705954"/>
    <poly id="1087964620" type="building.yes" color="255,230,230" fill="1" layer="-1.00" shape="2196.755538,539.210676 2196.939561,550.470587 2206.416594,550.318471 2206.232585,539.058560 2196.755538,539.210676"/>
    <poly id="1087964621" type="building.yes" color="255,230,230" fill="1" layer="-1.00" shape="2223.167234,553.103318 2223.289288,560.835483 2235.711149,560.635826 2235.557518,551.372740 2223.144567,551.572421 2222.914797,537.417108 2212.554310,537.577932 2212.806766,553.264143 2223.167234,553.103318"/>
    <poly id="1087964622" type="building.yes" color="255,230,230" fill="1" layer="-1.00" shape="2224.053619,535.345764 2224.221572,545.928958 2235.867067,545.749407 2235.699128,535.166213 2224.053619,535.345764"/>