<?xml version="1.0" encoding="UTF-8"?>

<!-- generated on 04/18/24 23:05:12 by Eclipse SUMO polyconvert Version 1.8.0
<configuration xmlns:xsi="http://www.w3.org/2001/XMLSchema-instance" xsi:noNamespaceSchemaLocation="http://sumo.dlr.de/xsd/polyconvertConfiguration.xsd">

    <input>
        <net-file value="osm.net.xml"/>
        <osm-files value="osm_bbox.osm.xml"/>
        <osm.keep-full-type value="true"/>
        <type-file value="C:\Program%20Files%20(x86)\Eclipse\Sumo\data\typemap\osmPolyconvert.typ.xml"/>
    </input>

    <output>
        <output-file value="osm.poly.xml"/>
    </output>

    <processing>
        <poi-layer-offset value="5"/>
    </processing>

    <report>
        <verbose value="true"/>
    </report>

</configuration>
-->

<additional xmlns:xsi="http://www.w3.org/2001/XMLSchema-instance" xsi:noNamespaceSchemaLocation="http://sumo.dlr.de/xsd/additional_file.xsd">
    <location netOffset="-521257.95,-4070215.61" convBoundary="-0.00,-3489.00,4512.73,2945.92" origBoundary="3.238269,36.745942,3.288828,36.804020" projParameter="+proj=utm +zone=31 +ellps=WGS84 +datum=WGS84 +units=m +no_defs"/>

    <poly id="1052051485" type="natural.grassland" color="140,196,107" fill="1" layer="-4.00" shape="1131.491963,581.972268 1211.986951,571.390218 1213.698658,571.960468 1212.668350,573.544059 1132.396424,584.137780 1129.543196,583.331600 1131.491963,581.972268"/>
    <poly id="1052051486" type="natural.grassland" color="140,196,107" fill="1" layer="-4.00" shape="1238.520716,569.186019 1239.451036,568.301029 1242.601813,567.932169 1284.133221,563.060950 1288.131620,562.716530 1288.439997,564.203810 1286.949227,564.443920 1242.731769,569.407883 1239.679290,569.721537 1238.520716,569.186019"/>
    <poly id="1052051489" type="amenity.parking" color="184,184,179" fill="1" layer="-1.00" shape="1288.441012,634.777651 1287.183830,634.419354 1278.981815,635.129839 1277.419574,615.124987 1282.077888,614.915424 1287.066846,614.518154 1288.441012,634.777651"/>
    <poly id="1052051490" type="amenity.parking" color="184,184,179" fill="1" layer="-1.00" shape="1275.020096,594.541089 1275.856448,608.975325 1281.496749,608.590864 1281.204467,594.246808 1275.020096,594.541089"/>
    <poly id="1052051491" type="natural.grassland" color="140,196,107" fill="1" layer="-4.00" shape="1302.214458,561.810823 1304.183313,562.991886 1315.983003,561.658633 1317.370043,560.153649 1315.400133,559.371929 1303.796744,560.705701 1302.214458,561.810823"/>
    <poly id="1052051493" type="natural.grassland" color="140,196,107" fill="1" layer="-4.00" shape="1339.140868,584.216551 1337.654268,586.253734 1345.022985,647.540030 1347.191847,647.312819 1339.140868,584.216551"/>
    <poly id="1052051495" type="amenity.parking" color="184,184,179" fill="1" layer="-1.00" shape="1336.758075,587.726734 1328.930127,588.682209 1336.092037,647.216880 1343.928826,646.272529 1336.758075,587.726734"/>
    <poly id="1087953536" type="landuse.recreation_ground" color="194,194,130" fill="1" layer="-3.00" shape="1271.350626,838.810993 1272.633584,853.057830 1295.293611,851.021079 1294.010661,836.785331 1288.388034,837.291853 1271.350626,838.810993"/>
    <poly id="1087953536#1" type="leisure.playground" color="207,245,201" fill="1" layer="-2.00" shape="1271.350626,838.810993 1272.633584,853.057830 1295.293611,851.021079 1294.010661,836.785331 1288.388034,837.291853 1271.350626,838.810993"/>
    <poly id="1087953537" type="landuse.recreation_ground" color="194,194,130" fill="1" layer="-3.00" shape="1334.368233,829.936704 1335.902474,846.968568 1363.051666,844.544529 1361.517478,827.512660 1334.368233,829.936704"/>
    <poly id="1087953537#1" type="leisure.playground" color="207,245,201" fill="1" layer="-2.00" shape="1334.368233,829.936704 1335.902474,846.968568 1363.051666,844.544529 1361.517478,827.512660 1334.368233,829.936704"/>
    <poly id="1087953541" type="leisure.garden" color="207,245,201" fill="1" layer="-2.00" shape="1260.936544,802.098865 1266.345252,855.625913 1369.018777,845.359040 1363.619657,791.820856 1302.188259,797.970236 1260.936544,802.098865"/>
    <poly id="1087964666" type="natural.grassland" color="140,196,107" fill="1" layer="-4.00" shape="1251.773063,673.439936 1252.703402,672.543854 1255.854171,672.163906 1297.350122,667.015335 1301.339609,666.648713 1301.656902,668.136017 1300.175044,668.387241 1255.993046,673.639645 1252.940545,673.975480 1251.773063,673.439936"/>
    <poly id="1087964667" type="natural.grassland" color="140,196,107" fill="1" layer="-4.00" shape="1459.626599,648.243550 1461.595443,649.413557 1473.395305,647.980685 1474.755590,646.475655 1472.794637,645.693922 1461.191074,647.127317 1459.626599,648.243550"/>
    <poly id="1087964668" type="natural.grassland" color="140,196,107" fill="1" layer="-4.00" shape="1441.633273,650.048228 1443.611071,651.207162 1455.401945,649.796427 1456.771180,648.280325 1454.801273,647.509665 1443.206668,648.932015 1441.633273,650.048228"/>
    <poly id="1087964669" type="natural.grassland" color="140,196,107" fill="1" layer="-4.00" shape="1422.442913,652.371136 1424.420683,653.541158 1436.211610,652.108211 1437.580811,650.603199 1435.610903,649.832544 1424.007382,651.254896 1422.442913,652.371136"/>
    <poly id="1087964670" type="natural.grassland" color="140,196,107" fill="1" layer="-4.00" shape="1403.600994,654.528617 1405.569873,655.687518 1417.369658,654.276755 1418.738885,652.760646 1416.760053,651.989972 1405.165460,653.412373 1403.600994,654.528617"/>
    <poly id="1087964671" type="natural.grassland" color="140,196,107" fill="1" layer="-4.00" shape="1367.120884,659.179683 1369.089767,660.338576 1380.889539,658.927762 1382.249835,657.411624 1380.279924,656.640982 1368.685344,658.063433 1367.120884,659.179683"/>
    <poly id="1087964672" type="natural.grassland" color="140,196,107" fill="1" layer="-4.00" shape="1315.413677,665.620981 1317.391459,666.790979 1329.182319,665.368977 1330.560451,663.852878 1328.581614,663.082224 1316.987052,664.504746 1315.413677,665.620981"/>
    <poly id="1087964673" type="natural.grassland" color="140,196,107" fill="1" layer="-4.00" shape="1348.590971,661.460135 1348.928539,662.026773 1349.069601,662.670542 1348.978639,663.324790 1348.691582,663.900867 1348.208547,664.354403 1347.609956,664.641236 1346.949522,664.694953 1346.334260,664.538022 1345.799743,664.214909 1345.408432,663.725779 1345.178025,663.126146 1345.161854,662.493800 1345.332973,661.895230 1345.709111,661.374853 1346.209757,661.010109 1346.817036,660.812042 1347.450526,660.824813 1348.074535,661.048325 1348.590971,661.460135"/>
    <poly id="1087964683" type="man_made.storage_tank" color="255,230,230" fill="1" layer="-1.00" shape="2070.983486,842.167761 2073.129927,843.604629 2074.658948,845.683206 2075.374918,848.158910 2075.198385,850.720920 2074.156905,853.080891 2072.367291,854.939630 2070.044291,856.075865 2067.473824,856.346168 2064.959316,855.729181 2062.812848,854.303408 2061.283825,852.224834 2060.567851,849.749130 2060.735487,847.176003 2061.785887,844.816055 2063.575471,842.968406 2065.898473,841.832169 2068.468975,841.550773 2070.983486,842.167761"/>
    <poly id="1087964693" type="amenity.parking" color="184,184,179" fill="1" layer="-1.00" shape="1259.970880,799.478363 1283.675788,797.144825 1283.328283,793.583045 1259.614413,795.927653 1259.970880,799.478363"/>
    <poly id="1087964694" type="amenity.parking" color="184,184,179" fill="1" layer="-1.00" shape="1324.258397,792.992349 1363.403762,789.113584 1363.056143,785.607265 1323.901869,789.474916 1323.178927,789.550655 1323.535456,793.068088 1324.258397,792.992349"/>
    <poly id="1087964695" type="amenity.parking" color="184,184,179" fill="1" layer="-1.00" shape="1285.112893,796.937852 1302.043169,795.473921 1321.223664,793.372579 1321.991218,793.296958 1321.643612,789.779548 1320.876057,789.855169 1283.783486,793.528781 1284.131137,797.035097 1285.112893,796.937852"/>
    <poly id="1087964696" type="amenity.parking" color="184,184,179" fill="1" layer="-1.00" shape="1295.198084,755.454370 1289.551841,704.067638 1286.026326,704.446584 1291.672590,755.833313 1295.198084,755.454370"/>
    <poly id="1087964697" type="amenity.parking" color="184,184,179" fill="1" layer="-1.00" shape="1324.901414,752.293722 1319.272578,701.139970 1315.755983,701.518927 1321.375918,752.672654 1324.901414,752.293722"/>
    <poly id="1087964698" type="amenity.parking" color="184,184,179" fill="1" layer="-1.00" shape="1312.695992,748.567467 1308.748916,712.648897 1305.232326,713.027859 1309.179388,748.957520 1312.695992,748.567467"/>
    <poly id="1087964699" type="amenity.parking" color="184,184,179" fill="1" layer="-1.00" shape="1304.011907,749.409770 1300.064794,713.491204 1296.539283,713.870146 1300.486380,749.799803 1304.011907,749.409770"/>
    <poly id="1093793222" type="building.apartments" color="255,230,230" fill="1" layer="-1.00" shape="1548.811720,975.226610 1556.404802,998.597740 1567.121057,995.143172 1559.528002,971.772033 1548.811720,975.226610"/>
    <poly id="1093793223" type="building.apartments" color="255,230,230" fill="1" layer="-1.00" shape="1561.857084,1018.391196 1569.450090,1041.762340 1580.166297,1038.307788 1572.573317,1014.936635 1561.857084,1018.391196"/>
    <poly id="1093793224" type="building.apartments" color="255,230,230" fill="1" layer="-1.00" shape="1600.414143,1007.290384 1608.015947,1030.672678 1618.732184,1027.218175 1611.130377,1003.846964 1600.414143,1007.290384"/>
    <poly id="1093793225" type="building.apartments" color="255,230,230" fill="1" layer="-1.00" shape="1636.823521,995.241077 1644.416344,1018.612286 1655.132611,1015.157829 1647.539815,991.786609 1636.823521,995.241077"/>
    <poly id="1093793226" type="building.apartments" color="255,230,230" fill="1" layer="-1.00" shape="1624.258412,952.787616 1631.851307,976.158813 1642.567593,972.715433 1634.974753,949.333133 1624.258412,952.787616"/>
    <poly id="1093793227" type="building.apartments" color="255,230,230" fill="1" layer="-1.00" shape="1586.735638,964.057485 1594.337549,987.428673 1605.053834,983.974152 1597.451950,960.602955 1586.735638,964.057485"/>
    <poly id="1093793239" type="landuse.greenhouse_horticulture" color="194,194,130" fill="1" layer="-3.00" shape="1735.233275,656.103065 1688.310077,661.922690 1689.480718,671.232890 1736.394972,665.402155 1735.233275,656.103065"/>
    <poly id="1093793240" type="landuse.greenhouse_horticulture" color="194,194,130" fill="1" layer="-3.00" shape="1688.345287,648.821914 1689.472091,657.843577 1734.279887,652.284495 1733.153130,643.262825 1688.345287,648.821914"/>
    <poly id="1093793241" type="landuse.greenhouse_horticulture" color="194,194,130" fill="1" layer="-3.00" shape="1731.953323,631.545353 1683.110899,637.614979 1684.115413,645.660126 1732.957792,639.590506 1731.953323,631.545353"/>
    <poly id="1093793242" type="landuse.greenhouse_horticulture" color="194,194,130" fill="1" layer="-3.00" shape="1737.504346,611.304426 1746.145020,610.085283 1740.252136,568.415076 1731.611451,569.623132 1737.504346,611.304426"/>
    <poly id="1093793243" type="landuse.greenhouse_horticulture" color="194,194,130" fill="1" layer="-3.00" shape="1725.292770,613.168453 1734.406501,611.895107 1728.522305,570.291489 1719.408531,571.564842 1725.292770,613.168453"/>
    <poly id="1093793244" type="landuse.greenhouse_horticulture" color="194,194,130" fill="1" layer="-3.00" shape="1707.932698,571.900036 1714.745205,620.051025 1723.091263,618.886532 1716.278802,570.735536 1707.932698,571.900036"/>
    <poly id="1101552056" type="natural.grassland" color="140,196,107" fill="1" layer="-4.00" shape="1237.717530,721.624284 1128.553938,736.013423 1116.870925,733.786377 1107.465692,710.177957 1105.021583,669.016426 1087.316078,666.585067 1100.135975,616.333943 1104.473807,605.618348 1110.707398,600.154723 1117.215017,599.084658 1220.435886,585.367485 1221.066856,589.728705 1237.717530,721.624284"/>
    <poly id="1118944458" type="building.yes" color="255,230,230" fill="1" layer="-1.00" shape="884.570063,1010.939057 883.285132,997.213646 870.603196,998.389903 871.888147,1012.115312 884.570063,1010.939057"/>
    <poly id="1118944459" type="building.house" color="255,230,230" fill="1" layer="-1.00" shape="872.569878,1024.485808 885.724779,1023.266408 884.570063,1010.939057 871.888147,1012.115312 871.415143,1012.158458 872.569878,1024.485808"/>
    <poly id="1118944460" type="building.yes" color="255,230,230" fill="1" layer="-1.00" shape="886.779762,1036.203618 885.807241,1025.873484 874.954903,1026.876993 875.918515,1037.207102 886.779762,1036.203618"/>
    <poly id="1118944461" type="building.yes" color="255,230,230" fill="1" layer="-1.00" shape="887.529727,1022.261625 888.866628,1036.586195 907.840364,1034.827276 906.503496,1020.502702 887.529727,1022.261625"/>
    <poly id="1118944462" type="building.yes" color="255,230,230" fill="1" layer="-1.00" shape="904.681614,1007.408196 885.868449,1009.156447 886.936241,1020.596131 905.749381,1018.847883 904.681614,1007.408196"/>
    <poly id="1118944463" type="building.yes" color="255,230,230" fill="1" layer="-1.00" shape="886.885772,995.337170 888.135871,1008.729700 902.406391,1007.402290 901.156315,994.009758 886.885772,995.337170"/>
    <poly id="1118944464" type="building.yes" color="255,230,230" fill="1" layer="-1.00" shape="885.010719,978.648390 886.391207,993.372421 900.768852,992.034193 899.397310,977.310182 885.010719,978.648390"/>
    <poly id="1118944465" type="building.house" color="255,230,230" fill="1" layer="-1.00" shape="868.861049,978.606516 870.475685,995.949106 883.657397,994.729773 882.033865,977.387157 868.861049,978.606516"/>
    <poly id="1118944466" type="building.yes" color="255,230,230" fill="1" layer="-1.00" shape="931.734853,818.519819 932.802783,829.892948 943.316261,828.910816 942.257267,817.537709 931.734853,818.519819"/>
    <poly id="1118944467" type="building.yes" color="255,230,230" fill="1" layer="-1.00" shape="918.920956,822.302525 920.145216,835.328919 931.818885,834.249950 930.594672,821.212461 918.920956,822.302525"/>
    <poly id="1118944468" type="building.yes" color="255,230,230" fill="1" layer="-1.00" shape="915.662814,833.131950 905.292164,834.092300 898.188002,834.750535 898.891243,842.262340 916.366040,840.643756 915.662814,833.131950"/>
    <poly id="1118944469" type="building.yes" color="255,230,230" fill="1" layer="-1.00" shape="904.206929,822.497270 905.292164,834.092300 915.662814,833.131950 914.577592,821.536918 904.206929,822.497270"/>
    <poly id="1118944470" type="building.yes" color="255,230,230" fill="1" layer="-1.00" shape="895.907782,836.652618 880.092991,838.120246 880.579252,843.290858 896.394034,841.823231 895.907782,836.652618"/>
    <poly id="1118944471" type="building.yes" color="255,230,230" fill="1" layer="-1.00" shape="888.647094,821.979892 889.853843,834.895306 896.511787,834.269185 895.305019,821.364863 888.647094,821.979892"/>
    <poly id="1118944472" type="building.yes" color="255,230,230" fill="1" layer="-1.00" shape="879.066608,824.462068 880.178069,836.279024 887.898062,835.555814 886.786611,823.738857 879.066608,824.462068"/>
    <poly id="1118944473" type="building.yes" color="255,230,230" fill="1" layer="-1.00" shape="924.254512,843.759203 925.131253,853.168369 935.118124,852.240324 934.241394,842.831158 924.254512,843.759203"/>
    <poly id="1118944474" type="building.yes" color="255,230,230" fill="1" layer="-1.00" shape="916.314063,860.655443 915.133377,848.028511 900.184326,849.409605 901.365033,862.036535 916.314063,860.655443"/>
    <poly id="1118944475" type="building.yes" color="255,230,230" fill="1" layer="-1.00" shape="900.961492,873.128516 916.990422,871.639297 917.338489,871.606922 916.314063,860.655443 901.365033,862.036535 899.937044,862.177038 900.961492,873.128516"/>
    <poly id="1118944476" type="building.yes" color="255,230,230" fill="1" layer="-1.00" shape="917.815217,880.438211 916.990422,871.639297 900.961492,873.128516 901.786304,881.927428 917.815217,880.438211"/>
    <poly id="1118944477" type="building.yes" color="255,230,230" fill="1" layer="-1.00" shape="902.470426,889.927277 918.561783,888.438224 917.815217,880.438211 901.786304,881.927428 902.470426,889.927277"/>
    <poly id="1118944478" type="building.yes" color="255,230,230" fill="1" layer="-1.00" shape="883.218668,885.229347 883.861042,892.130876 899.961314,890.641811 899.310030,883.740257 883.218668,885.229347"/>
    <poly id="1118944479" type="building.yes" color="255,230,230" fill="1" layer="-1.00" shape="882.886268,868.899548 884.344983,884.433570 899.615297,883.008910 898.165533,867.474908 897.746056,867.518191 882.886268,868.899548"/>
    <poly id="1118944480" type="building.yes" color="255,230,230" fill="1" layer="-1.00" shape="881.271457,851.623516 882.886268,868.899548 897.746056,867.518191 896.131246,850.253250 881.271457,851.623516"/>
    <poly id="1118944481" type="building.yes" color="255,230,230" fill="1" layer="-1.00" shape="777.655657,802.035849 778.871270,815.040013 791.499929,813.863480 790.284335,800.859314 777.655657,802.035849"/>
    <poly id="1118944482" type="building.yes" color="255,230,230" fill="1" layer="-1.00" shape="701.135338,867.609235 717.387363,866.098030 717.708662,866.065578 716.258363,850.609260 699.693961,852.141850 701.135338,867.609235"/>
    <poly id="1118944483" type="building.yes" color="255,230,230" fill="1" layer="-1.00" shape="718.351385,876.350468 717.387363,866.098030 701.135338,867.609235 702.099408,877.850578 718.351385,876.350468"/>
    <poly id="1118944484" type="building.yes" color="255,230,230" fill="1" layer="-1.00" shape="702.306188,880.713111 705.084814,910.493942 722.452332,908.885779 719.664844,879.104919 702.306188,880.713111"/>
    <poly id="1118944485" type="building.yes" color="255,230,230" fill="1" layer="-1.00" shape="682.892951,890.192105 667.435286,891.627765 669.545429,914.229679 685.011976,912.794046 682.892951,890.192105"/>
    <poly id="1118944486" type="building.yes" color="255,230,230" fill="1" layer="-1.00" shape="699.531025,887.738951 684.930146,889.088038 687.022798,911.534610 701.632561,910.185549 699.531025,887.738951"/>
    <poly id="1118944487" type="building.yes" color="255,230,230" fill="1" layer="-1.00" shape="749.166364,898.593714 739.420564,899.489318 740.167265,907.500408 749.913085,906.593712 749.166364,898.593714"/>
    <poly id="1118944488" type="building.yes" color="255,230,230" fill="1" layer="-1.00" shape="740.212085,890.106657 741.210652,900.791815 753.348295,899.669426 752.349743,888.984267 740.212085,890.106657"/>
    <poly id="1118944489" type="building.yes" color="255,230,230" fill="1" layer="-1.00" shape="747.163674,886.308571 745.461740,868.111621 733.324053,869.234021 735.025984,887.442062 747.163674,886.308571"/>
    <poly id="1118944490" type="building.yes" color="255,230,230" fill="1" layer="-1.00" shape="731.791467,861.487141 732.355777,867.567573 744.823688,866.412744 744.250464,860.332288 731.791467,861.487141"/>
    <poly id="1118944491" type="building.yes" color="255,230,230" fill="1" layer="-1.00" shape="729.547204,849.445428 730.398277,858.510622 745.445460,857.118390 744.594403,848.053194 729.547204,849.445428"/>
    <poly id="1118944492" type="building.yes" color="255,230,230" fill="1" layer="-1.00" shape="727.062939,837.048120 728.078974,847.888623 745.473421,846.269483 744.457379,835.440071 727.062939,837.048120"/>
    <poly id="1118944493" type="building.yes" color="255,230,230" fill="1" layer="-1.00" shape="701.209524,838.767559 702.216897,849.519292 722.494023,847.641288 721.486674,836.889553 701.209524,838.767559"/>
    <poly id="1118944494" type="building.yes" color="255,230,230" fill="1" layer="-1.00" shape="874.301998,910.465051 868.099280,911.047996 869.123733,922.010563 875.326415,921.438712 874.301998,910.465051"/>
    <poly id="1118944495" type="building.yes" color="255,230,230" fill="1" layer="-1.00" shape="877.060955,906.301225 878.319805,919.771426 883.255202,919.307224 881.987409,905.848093 877.060955,906.301225"/>
    <poly id="1118944496" type="building.yes" color="255,230,230" fill="1" layer="-1.00" shape="882.934489,901.912524 884.149955,914.905613 891.637834,914.203990 890.422350,901.221993 882.934489,901.912524"/>
    <poly id="1118944497" type="building.yes" color="255,230,230" fill="1" layer="-1.00" shape="891.317397,900.148292 892.498024,912.808500 905.287190,911.621460 904.106582,898.961249 891.317397,900.148292"/>
    <poly id="1118944498" type="building.yes" color="255,230,230" fill="1" layer="-1.00" shape="893.173920,923.980934 894.120138,934.133510 906.909243,932.957565 905.954147,922.793871 893.173920,923.980934"/>
    <poly id="1118944499" type="building.yes" color="255,230,230" fill="1" layer="-1.00" shape="881.921377,924.428744 883.267082,938.808799 892.896832,937.924152 891.551171,923.533002 881.921377,924.428744"/>
    <poly id="1118944500" type="building.yes" color="255,230,230" fill="1" layer="-1.00" shape="868.026195,928.918675 869.050848,939.803592 879.492745,938.843383 878.468135,927.947372 868.026195,928.918675"/>
    <poly id="1118944501" type="building.yes" color="255,230,230" fill="1" layer="-1.00" shape="946.261456,938.417760 947.016709,946.495450 954.263571,945.826535 953.508325,937.748844 946.261456,938.417760"/>
    <poly id="1118944502" type="building.yes" color="255,230,230" fill="1" layer="-1.00" shape="934.618576,951.732400 935.590874,962.129097 959.607264,959.895309 958.634966,949.509703 934.618576,951.732400"/>
    <poly id="1118944503" type="building.house" color="255,230,230" fill="1" layer="-1.00" shape="912.833803,953.583798 913.684641,962.660105 931.364470,961.019900 930.513651,951.943591 912.833803,953.583798"/>
    <poly id="1118944504" type="building.yes" color="255,230,230" fill="1" layer="-1.00" shape="887.251907,943.622417 888.415379,956.016349 897.161582,955.207065 895.998123,942.813132 887.251907,943.622417"/>
    <poly id="1118944505" type="building.house" color="255,230,230" fill="1" layer="-1.00" shape="868.223546,945.725125 870.324739,968.127397 885.211119,966.746089 883.109966,944.343813 868.223546,945.725125"/>
    <poly id="1134951853" type="leisure.garden" color="207,245,201" fill="1" layer="-2.00" shape="1444.084830,811.957529 1459.338120,810.311962 1462.908990,843.167934 1447.664681,844.813518 1444.084830,811.957529"/>
    <poly id="1134958538" type="leisure.garden" color="207,245,201" fill="1" layer="-2.00" shape="1179.119392,837.858145 1217.159273,833.520991 1216.321858,826.241759 1178.281974,830.567823 1179.119392,837.858145"/>
    <poly id="1135906221" type="leisure.stadium" color="207,245,201" fill="1" layer="-2.00" shape="1331.720088,849.453432 1306.203817,851.859700 1304.728077,836.303370 1330.244394,833.897097 1331.720088,849.453432"/>
    <poly id="1135906221#1" type="sport.soccer" color="79,230,125" fill="1" layer="-2.00" shape="1331.720088,849.453432 1306.203817,851.859700 1304.728077,836.303370 1330.244394,833.897097 1331.720088,849.453432"/>
    <poly id="1155194346" type="landuse.residential" color="235,235,227" fill="1" layer="-3.00" shape="1401.585488,1672.586790 1452.906691,1701.653864 1482.236983,1653.122229 1487.532191,1641.366616 1476.473338,1442.150442 1472.919460,1429.838792 1349.608485,1439.617060 1236.039227,1446.560769 1243.512073,1519.084584 1294.205092,1546.706935 1246.158959,1608.179789 1251.033762,1667.762291 1342.561258,1712.087929 1373.645360,1721.932178 1401.585488,1672.586790"/>
    <poly id="1157418057" type="building.yes" color="255,230,230" fill="1" layer="-1.00" shape="1034.271340,819.729849 1034.037640,813.550422 1028.317618,813.768442 1028.542428,819.936752 1034.271340,819.729849"/>
    <poly id="1157418058" type="building.yes" color="255,230,230" fill="1" layer="-1.00" shape="1020.656722,815.767378 1021.223252,831.177072 1028.272849,830.918146 1027.697409,815.508428 1020.656722,815.767378"/>
    <poly id="1157418059" type="building.yes" color="255,230,230" fill="1" layer="-1.00" shape="1008.503622,815.913161 1014.419941,815.695640 1014.095109,806.820370 1008.169862,807.037868 1008.503622,815.913161"/>
    <poly id="1157418060" type="building.yes" color="255,230,230" fill="1" layer="-1.00" shape="1064.522943,825.155733 1064.756012,831.568113 1078.890900,831.050433 1078.340868,816.195428 1072.611924,816.413395 1064.205956,816.713110 1064.522943,825.155733"/>
    <poly id="1157418061" type="building.yes" color="255,230,230" fill="1" layer="-1.00" shape="1083.579873,822.487791 1083.880012,830.542115 1094.802439,830.138078 1094.511232,822.083776 1083.579873,822.487791"/>
    <poly id="1157418062" type="building.yes" color="255,230,230" fill="1" layer="-1.00" shape="1085.685934,812.143507 1098.205682,811.688189 1097.822110,801.426133 1085.311269,801.881475 1074.522676,802.274782 1074.981183,814.600336 1085.760837,814.207006 1085.685934,812.143507"/>
    <poly id="1157418063" type="building.yes" color="255,230,230" fill="1" layer="-1.00" shape="1061.491104,803.960122 1061.874198,814.421850 1073.305293,813.996928 1072.922184,803.546293 1061.491104,803.960122"/>
    <poly id="1157418064" type="building.yes" color="255,230,230" fill="1" layer="-1.00" shape="1099.086499,931.905659 1099.462124,938.384973 1112.116224,937.663795 1111.740609,931.184481 1099.086499,931.905659"/>
    <poly id="1157418065" type="building.yes" color="255,230,230" fill="1" layer="-1.00" shape="1051.993768,911.171611 1052.514242,920.280348 1063.463899,919.654482 1062.934514,910.545720 1051.993768,911.171611"/>
    <poly id="1157418066" type="building.yes" color="255,230,230" fill="1" layer="-1.00" shape="1092.093637,951.422176 1092.571573,959.721014 1103.681817,959.084527 1103.203862,950.796781 1092.093637,951.422176"/>
    <poly id="1157418067" type="building.yes" color="255,230,230" fill="1" layer="-1.00" shape="1090.679881,942.721538 1091.081176,949.622454 1102.753638,948.954159 1102.352324,942.064335 1090.679881,942.721538"/>
    <poly id="1157418068" type="building.yes" color="255,230,230" fill="1" layer="-1.00" shape="1091.897017,934.504789 1092.366700,942.548466 1099.300564,942.156180 1098.839810,934.112526 1091.897017,934.504789"/>
    <poly id="1157418069" type="building.yes" color="255,230,230" fill="1" layer="-1.00" shape="1066.055523,935.158222 1066.362809,940.483680 1083.871504,939.486739 1083.564228,934.161280 1066.055523,935.158222"/>
    <poly id="1157418070" type="building.yes" color="255,230,230" fill="1" layer="-1.00" shape="1066.154401,941.703369 1066.555309,948.759585 1074.872387,948.282152 1074.471456,941.237028 1066.154401,941.703369"/>
    <poly id="1157418071" type="building.yes" color="255,230,230" fill="1" layer="-1.00" shape="1057.639294,949.668088 1058.014776,956.213958 1069.946007,955.535201 1069.570535,948.989331 1057.639294,949.668088"/>
    <poly id="1157418072" type="building.yes" color="255,230,230" fill="1" layer="-1.00" shape="1075.680837,1051.937555 1075.356326,1046.379097 1071.983136,1046.569947 1072.298698,1052.139475 1075.680837,1051.937555"/>
    <poly id="1157418073" type="building.roof" color="255,230,230" fill="1" layer="-1.00" shape="1016.390957,1055.421161 1016.971485,1065.461870 1028.500995,1064.804194 1027.920481,1054.763485 1016.390957,1055.421161"/>
    <poly id="1157418074" type="building.yes" color="255,230,230" fill="1" layer="-1.00" shape="1066.529199,1071.337518 1066.230783,1066.034268 1059.243458,1066.437533 1059.550801,1071.740806 1066.529199,1071.337518"/>
    <poly id="1157418075" type="building.yes" color="255,230,230" fill="1" layer="-1.00" shape="1059.106702,1053.902049 1058.859031,1049.663863 1053.308430,1049.982145 1053.547182,1054.220308 1059.106702,1053.902049"/>
    <poly id="1157418076" type="building.yes" color="255,230,230" fill="1" layer="-1.00" shape="1058.696755,1046.890181 1058.859031,1049.663863 1059.106702,1053.902049 1070.770068,1053.244780 1070.369052,1046.232934 1058.696755,1046.890181"/>
    <poly id="1157418077" type="building.yes" color="255,230,230" fill="1" layer="-1.00" shape="1049.901188,1042.718398 1050.242344,1048.742806 1065.635887,1047.862325 1065.294742,1041.837916 1049.901188,1042.718398"/>
    <poly id="1157418078" type="building.yes" color="255,230,230" fill="1" layer="-1.00" shape="1049.482919,1035.473555 1049.901188,1042.718398 1065.294742,1041.837916 1068.168192,1041.679035 1067.749938,1034.434191 1049.482919,1035.473555"/>
    <poly id="1157418079" type="building.yes" color="255,230,230" fill="1" layer="-1.00" shape="1078.380890,1025.975831 1077.587268,1012.151836 1057.588958,1013.297584 1058.382641,1027.110483 1078.380890,1025.975831"/>
    <poly id="1157418080" type="building.yes" color="255,230,230" fill="1" layer="-1.00" shape="1089.145967,1007.190222 1088.761880,1000.533397 1085.263729,1000.735008 1085.647819,1007.391833 1089.145967,1007.190222"/>
    <poly id="1157418081" type="building.yes" color="255,230,230" fill="1" layer="-1.00" shape="1088.505822,996.095514 1088.761880,1000.533397 1089.145967,1007.190222 1101.407290,1006.501280 1100.767189,995.395479 1088.505822,996.095514"/>
    <poly id="1170972637" type="building.yes" color="255,230,230" fill="1" layer="-1.00" shape="1481.336125,554.376668 1482.541872,563.997534 1488.370509,563.269828 1487.164740,553.660053 1481.336125,554.376668"/>
    <poly id="1170972637#1" type="man_made.street_cabinet" color="255,230,230" fill="1" layer="-1.00" shape="1481.336125,554.376668 1482.541872,563.997534 1488.370509,563.269828 1487.164740,553.660053 1481.336125,554.376668"/>
    <poly id="1170972638" type="building.yes" color="255,230,230" fill="1" layer="-1.00" shape="1669.454159,642.692182 1670.048191,647.430501 1674.466506,646.876623 1673.872447,642.149396 1669.454159,642.692182"/>
    <poly id="1170972638#1" type="man_made.street_cabinet" color="255,230,230" fill="1" layer="-1.00" shape="1669.454159,642.692182 1670.048191,647.430501 1674.466506,646.876623 1673.872447,642.149396 1669.454159,642.692182"/>