<?xml version="1.0" encoding="UTF-8"?>

<!-- generated on 04/18/24 23:05:14 by Eclipse SUMO duarouter Version 1.8.0
<configuration xmlns:xsi="http://www.w3.org/2001/XMLSchema-instance" xsi:noNamespaceSchemaLocation="http://sumo.dlr.de/xsd/duarouterConfiguration.xsd">

    <input>
        <net-file value="C:\Users\LENOVO\Sumo\2024-04-18-23-05-02\osm.net.xml"/>
        <route-files value="C:\Users\LENOVO\Sumo\2024-04-18-23-05-02\osm.passenger.trips.xml"/>
    </input>

    <output>
        <output-file value="C:\Users\LENOVO\Sumo\2024-04-18-23-05-02\osm.passenger.trips.xml.tmp"/>
        <write-trips value="true"/>
    </output>

    <time>
        <begin value="0"/>
        <end value="3600"/>
    </time>

    <report>
        <no-warnings value="true"/>
        <ignore-errors value="true"/>
        <no-step-log value="true"/>
    </report>

</configuration>
-->

<routes xmlns:xsi="http://www.w3.org/2001/XMLSchema-instance" xsi:noNamespaceSchemaLocation="http://sumo.dlr.de/xsd/routes_file.xsd">
    <vType id="veh_passenger" vClass="passenger"/>
    <trip id="veh0" type="veh_passenger" depart="0.00" departLane="best" from="1158311145" to="-1052051487#0"/>
    <trip id="veh1" type="veh_passenger" depart="2.84" departLane="best" from="-299069020" to="-315875664"/>
   <trip id="veh2" type="veh_passenger" depart="5.67" departLane="best" from="262473510#1" to="259250252#3"/>
    <trip id="veh3" type="veh_passenger" depart="8.51" departLane="best" from="69408956#0" to="-1093793236#1"/>
     <trip id="veh4" type="veh_passenger" depart="11.34" departLane="best" from="-69408942#1" to="-1060150652#1"/>
    
    
     <!--
    <trip id="veh5" type="veh_passenger" depart="14.18" departLane="best" departSpeed="max" from="-1172571137" to="1134951854#1"/>
    <trip id="veh6" type="veh_passenger" depart="17.01" departLane="best" departSpeed="max" from="-1206767244" to="1171581118"/>
    <trip id="veh7" type="veh_passenger" depart="19.85" departLane="best" from="382884318#5" to="-1014320622"/>
    <trip id="veh8" type="veh_passenger" depart="22.68" departLane="best" from="365110758#1" to="262473506#0"/>
    <trip id="veh9" type="veh_passenger" depart="25.52" departLane="best" from="942717449#0" to="-69408948#1"/>
    <trip id="veh10" type="veh_passenger" depart="28.35" departLane="best" from="-1157296685#0" to="-1155192039#0"/>
    <trip id="veh11" type="veh_passenger" depart="31.19" departLane="best" from="69407785#4" to="1171582026"/>
    <trip id="veh12" type="veh_passenger" depart="34.02" departLane="best" from="382884318#0" to="315875662#1"/>
    <trip id="veh13" type="veh_passenger" depart="36.86" departLane="best" from="1014320626#1" to="942717452#22"/>
    <trip id="veh14" type="veh_passenger" depart="39.70" departLane="best" from="-69407774" to="1162682153"/>
    <trip id="veh15" type="veh_passenger" depart="42.53" departLane="best" from="69407778" to="1171586074#1"/>
    <trip id="veh16" type="veh_passenger" depart="45.37" departLane="best" from="69408939#1" to="1171580654"/>
    <trip id="veh18" type="veh_passenger" depart="51.04" departLane="best" from="-1134951854#3" to="-315875687#1"/>
    <trip id="veh19" type="veh_passenger" depart="53.87" departLane="best" departSpeed="max" from="-1157296690#1" to="-497459324"/>
    <trip id="veh20" type="veh_passenger" depart="56.71" departLane="best" from="1158311141#0" to="-69408959#7"/>
    <trip id="veh21" type="veh_passenger" depart="59.54" departLane="best" from="-69407767#0" to="-305675294#1"/>
    <trip id="veh22" type="veh_passenger" depart="62.38" departLane="best" from="-262473507#0" to="900307853#1"/>
    <trip id="veh23" type="veh_passenger" depart="65.21" departLane="best" from="1171580841" to="1171585903"/>
    <trip id="veh24" type="veh_passenger" depart="68.05" departLane="best" from="-1171581985" to="315875662#1"/>
    <trip id="veh26" type="veh_passenger" depart="73.72" departLane="best" from="942717452#34" to="1171587369"/>
    <trip id="veh27" type="veh_passenger" depart="76.55" departLane="best" from="69407784#1" to="33831834#13"/>
    <trip id="veh29" type="veh_passenger" depart="82.23" departLane="best" departSpeed="max" from="-33487835" to="-33831834#8"/>
    <trip id="veh30" type="veh_passenger" depart="85.06" departLane="best" departSpeed="max" from="-1171587337" to="900307854#4"/>
    <trip id="veh31" type="veh_passenger" depart="87.90" departLane="best" from="69408947#2" to="-69407786#0"/>
    <trip id="veh33" type="veh_passenger" depart="93.57" departLane="best" departSpeed="max" from="784676882#0" to="107457106#2"/>
    <trip id="veh34" type="veh_passenger" depart="96.40" departLane="best" from="-262473505#9" to="-33489337#4"/>
    <trip id="veh35" type="veh_passenger" depart="99.24" departLane="best" from="1060150654#3" to="-33831834#17"/>
    <trip id="veh36" type="veh_passenger" depart="102.07" departLane="best" from="107457118#4" to="69408959#2"/>
    <trip id="veh37" type="veh_passenger" depart="104.91" departLane="best" from="-69407785#2" to="-315875659#0"/>
    <trip id="veh38" type="veh_passenger" depart="107.74" departLane="best" from="942717452#9" to="1134951856#6"/>
    <trip id="veh39" type="veh_passenger" depart="110.58" departLane="best" departSpeed="max" from="-1157079685" to="-107457110"/>
    <trip id="veh40" type="veh_passenger" depart="113.41" departLane="best" from="-1158311140#7" to="1171586132"/>
    <trip id="veh41" type="veh_passenger" depart="116.25" departLane="best" from="33831832#4" to="1013948620#3"/>
    <trip id="veh42" type="veh_passenger" depart="119.09" departLane="best" from="-1087964690" to="-786420620#7"/>
    <trip id="veh43" type="veh_passenger" depart="121.92" departLane="best" from="942717452#8" to="1157296687"/>
    <trip id="veh44" type="veh_passenger" depart="124.76" departLane="best" departSpeed="max" from="-1036826697#1" to="305675294#3"/>
    <trip id="veh45" type="veh_passenger" depart="127.59" departLane="best" from="-262473507#0" to="1171587756#2"/>
    <trip id="veh46" type="veh_passenger" depart="130.43" departLane="best" departSpeed="max" from="-1158311141#1" to="1036826699#1"/>
    <trip id="veh47" type="veh_passenger" depart="133.26" departLane="best" from="-69408959#2" to="942717449#0"/>
    <trip id="veh48" type="veh_passenger" depart="136.10" departLane="best" from="69408947#1" to="-33831834#18"/>
    <trip id="veh49" type="veh_passenger" depart="138.93" departLane="best" from="-942717452#29" to="-259250252#0"/>
    <trip id="veh50" type="veh_passenger" depart="141.77" departLane="best" departSpeed="max" from="784676882#0" to="69408948#2"/>
    <trip id="veh51" type="veh_passenger" depart="144.60" departLane="best" from="-315875675#0" to="1171587337"/>
    <trip id="veh52" type="veh_passenger" depart="147.44" departLane="best" from="1093793236#0" to="-1171586168#0"/>
    <trip id="veh53" type="veh_passenger" depart="150.27" departLane="best" from="315875675#1" to="1158311140#4"/>
    <trip id="veh54" type="veh_passenger" depart="153.11" departLane="best" from="33488726#1" to="1157296687"/>
    <trip id="veh55" type="veh_passenger" depart="155.95" departLane="best" from="-1013948620#2" to="-69408934#1"/>
    <trip id="veh56" type="veh_passenger" depart="158.78" departLane="best" from="69408948#1" to="69407783#2"/>
    <trip id="veh57" type="veh_passenger" depart="161.62" departLane="best" departSpeed="max" from="-315875687#2" to="-107457118#3"/>
    <trip id="veh58" type="veh_passenger" depart="164.45" departLane="best" from="69408947#6" to="900307855#4"/>
    <trip id="veh59" type="veh_passenger" depart="167.29" departLane="best" from="-1157079683#0" to="1087964680#0"/>
    <trip id="veh60" type="veh_passenger" depart="170.12" departLane="best" departSpeed="max" from="-1089084848" to="33489337#10"/>
    <trip id="veh61" type="veh_passenger" depart="172.96" departLane="best" from="-786420620#0" to="1158311147"/>
    <trip id="veh62" type="veh_passenger" depart="175.79" departLane="best" from="-262473505#9" to="69408949#2"/>
    <trip id="veh63" type="veh_passenger" depart="178.63" departLane="best" from="-69408943#1" to="-305675294#2"/>
    <trip id="veh64" type="veh_passenger" depart="181.46" departLane="best" from="1036826696#2" to="315875662#1"/>
    <trip id="veh65" type="veh_passenger" depart="184.30" departLane="best" departSpeed="max" from="-1171586250" to="-69407785#5"/>
    <trip id="veh66" type="veh_passenger" depart="187.13" departLane="best" from="942717452#7" to="1178013437"/>
    <trip id="veh67" type="veh_passenger" depart="189.97" departLane="best" from="-69408954#1" to="1157079683#2"/>
    <trip id="veh68" type="veh_passenger" depart="192.80" departLane="best" departSpeed="max" from="-1162682153" to="-315875673#0"/>
    <trip id="veh69" type="veh_passenger" depart="195.64" departLane="best" from="-33831832#7" to="1171581073"/>
    <trip id="veh71" type="veh_passenger" depart="201.31" departLane="best" departSpeed="max" from="-1089084848" to="1171586168#1"/>
    <trip id="veh73" type="veh_passenger" depart="206.98" departLane="best" from="69408934#0" to="-1087953539#5"/>
    <trip id="veh76" type="veh_passenger" depart="215.49" departLane="best" from="-786074814#1" to="33831834#5"/>
    <trip id="veh77" type="veh_passenger" depart="218.32" departLane="best" from="382884318#0" to="-262473505#0"/>
    <trip id="veh78" type="veh_passenger" depart="221.16" departLane="best" departSpeed="max" from="-1157296687" to="1036826697#1"/>
    <trip id="veh79" type="veh_passenger" depart="223.99" departLane="best" from="262473505#6" to="259250251#5"/>
    <trip id="veh80" type="veh_passenger" depart="226.83" departLane="best" from="942717452#3" to="-1157079683#1"/>
    <trip id="veh81" type="veh_passenger" depart="229.66" departLane="best" from="-69407785#8" to="-69408949#2"/>
    <trip id="veh82" type="veh_passenger" depart="232.50" departLane="best" from="69408939#1" to="-33831832#1"/>
    <trip id="veh83" type="veh_passenger" depart="235.34" departLane="best" departSpeed="max" from="-1171586105" to="1060150653#0"/>
    <trip id="veh84" type="veh_passenger" depart="238.17" departLane="best" from="-69408942#1" to="-497459324"/>
    <trip id="veh85" type="veh_passenger" depart="241.01" departLane="best" from="-262473503#4" to="786074813#6"/>
    <trip id="veh86" type="veh_passenger" depart="243.84" departLane="best" from="1052051487#0" to="-107457118#0"/>
    <trip id="veh87" type="veh_passenger" depart="246.68" departLane="best" from="95457146#2" to="69407785#1"/>
    <trip id="veh88" type="veh_passenger" depart="249.51" departLane="best" from="942717452#10" to="786074814#1"/>
    <trip id="veh90" type="veh_passenger" depart="255.18" departLane="best" from="-942717452#1" to="-305675294#7"/>
    <trip id="veh91" type="veh_passenger" depart="258.02" departLane="best" from="-69407785#5" to="-107457118#4"/>
    <trip id="veh92" type="veh_passenger" depart="260.85" departLane="best" from="-69407775#0" to="942717452#33"/>
    <trip id="veh93" type="veh_passenger" depart="263.69" departLane="best" from="-262473505#9" to="33831834#4"/>
    <trip id="veh94" type="veh_passenger" depart="266.52" departLane="best" from="-69408959#4" to="1014320621"/>
    <trip id="veh95" type="veh_passenger" depart="269.36" departLane="best" from="942717449#0" to="95457146#1"/>
    <trip id="veh96" type="veh_passenger" depart="272.20" departLane="best" departSpeed="max" from="-1171580910" to="-69407781#1"/>
    <trip id="veh97" type="veh_passenger" depart="275.03" departLane="best" from="1036826699#0" to="315888538"/>
    <trip id="veh98" type="veh_passenger" depart="277.87" departLane="best" departSpeed="max" from="-1087964677" to="1171580884"/>
    <trip id="veh99" type="veh_passenger" depart="280.70" departLane="best" from="-942717452#30" to="69408939#1"/>
    <trip id="veh100" type="veh_passenger" depart="283.54" departLane="best" from="-1171581058" to="942717449#6"/>
    <trip id="veh101" type="veh_passenger" depart="286.37" departLane="best" from="-1134951854#3" to="-262473503#5"/>
    <trip id="veh102" type="veh_passenger" depart="289.21" departLane="best" from="1087953540#1" to="259250252#0"/>
    <trip id="veh104" type="veh_passenger" depart="294.88" departLane="best" from="69408954#4" to="-33489337#2"/>
    <trip id="veh105" type="veh_passenger" depart="297.71" departLane="best" from="1087953540#0" to="1171586074#1"/>
    <trip id="veh106" type="veh_passenger" depart="300.55" departLane="best" from="-69408941#3" to="1171580884"/>
    <trip id="veh107" type="veh_passenger" depart="303.38" departLane="best" from="1014320621" to="786420620#7"/>
    <trip id="veh108" type="veh_passenger" depart="306.22" departLane="best" from="-1171586383" to="305638298#2"/>
    <trip id="veh109" type="veh_passenger" depart="309.05" departLane="best" from="-259250251#0" to="-942717452#17"/>
    <trip id="veh110" type="veh_passenger" depart="311.89" departLane="best" departSpeed="max" from="1171585984" to="-69407782#1"/>
    <trip id="veh111" type="veh_passenger" depart="314.73" departLane="best" departSpeed="max" from="-33487835" to="33488726#1"/>
    <trip id="veh112" type="veh_passenger" depart="317.56" departLane="best" departSpeed="max" from="-1093793236#2" to="107457106#1"/>
    <trip id="veh113" type="veh_passenger" depart="320.40" departLane="best" departSpeed="max" from="-1093793236#2" to="-305675294#6"/>
    <trip id="veh114" type="veh_passenger" depart="323.23" departLane="best" from="-262473505#9" to="786420620#5"/>
    <trip id="veh115" type="veh_passenger" depart="326.07" departLane="best" from="69408948#4" to="69408950#8"/>
    <trip id="veh116" type="veh_passenger" depart="328.90" departLane="best" from="-69407763#0" to="-1171586907#0"/>
    <trip id="veh117" type="veh_passenger" depart="331.74" departLane="best" from="69407781#2" to="262473510#1"/>
    <trip id="veh118" type="veh_passenger" depart="334.57" departLane="best" from="1134951852#1" to="942717452#36"/>
    <trip id="veh119" type="veh_passenger" depart="337.41" departLane="best" from="1171581168" to="-1014320622"/>
    <trip id="veh120" type="veh_passenger" depart="340.24" departLane="best" from="69407756#0" to="-69407782#0"/>
    <trip id="veh121" type="veh_passenger" depart="343.08" departLane="best" departSpeed="max" from="1171585885" to="900307854#1"/>
    <trip id="veh123" type="veh_passenger" depart="348.75" departLane="best" from="-1158311140#2" to="1162682153"/>
    <trip id="veh124" type="veh_passenger" depart="351.59" departLane="best" from="-262473511#1" to="1171584438"/>
    <trip id="veh125" type="veh_passenger" depart="354.42" departLane="best" from="259250254" to="-299069008"/>
    <trip id="veh126" type="veh_passenger" depart="357.26" departLane="best" from="1158311140#6" to="-33831834#19"/>
    <trip id="veh127" type="veh_passenger" depart="360.09" departLane="best" from="-942717452#13" to="69418904#1"/>
    <trip id="veh128" type="veh_passenger" depart="362.93" departLane="best" from="69407785#10" to="-1134951854#4"/>
    <trip id="veh129" type="veh_passenger" depart="365.76" departLane="best" from="-69408943#1" to="-497459323"/>
    <trip id="veh130" type="veh_passenger" depart="368.60" departLane="best" from="-1014320626#1" to="33831832#5"/>
    <trip id="veh131" type="veh_passenger" depart="371.43" departLane="best" from="1158311142#1" to="-33831834#16"/>
    <trip id="veh132" type="veh_passenger" depart="374.27" departLane="best" from="299070427#1" to="1162682153"/>
    <trip id="veh133" type="veh_passenger" depart="377.10" departLane="best" from="-69408949#1" to="-1014320623"/>
    <trip id="veh134" type="veh_passenger" depart="379.94" departLane="best" from="-1101552059" to="69408954#2"/>
    <trip id="veh135" type="veh_passenger" depart="382.77" departLane="best" from="69408959#2" to="1158311142#0"/>
    <trip id="veh136" type="veh_passenger" depart="385.61" departLane="best" from="69407781#3" to="1171580841"/>
    <trip id="veh137" type="veh_passenger" depart="388.45" departLane="best" departSpeed="max" from="-315875687#2" to="69408959#4"/>
    <trip id="veh138" type="veh_passenger" depart="391.28" departLane="best" from="33831834#11" to="69408943#0"/>
    <trip id="veh139" type="veh_passenger" depart="394.12" departLane="best" from="69408958#10" to="-305675294#10"/>
    <trip id="veh140" type="veh_passenger" depart="396.95" departLane="best" from="-262473503#4" to="-1157296690#0"/>
    <trip id="veh141" type="veh_passenger" depart="399.79" departLane="best" from="33488726#5" to="69408954#4"/>
    <trip id="veh142" type="veh_passenger" depart="402.62" departLane="best" from="-69407786#4" to="1171586074#1"/>
    <trip id="veh143" type="veh_passenger" depart="405.46" departLane="best" departSpeed="max" from="-1171580910" to="786074815#2"/>
    <trip id="veh144" type="veh_passenger" depart="408.29" departLane="best" from="69408940#3" to="942717452#24"/>
    <trip id="veh145" type="veh_passenger" depart="411.13" departLane="best" from="382886232#1" to="69408950#8"/>
    <trip id="veh146" type="veh_passenger" depart="413.96" departLane="best" from="33831834#4" to="69408945#3"/>
    <trip id="veh147" type="veh_passenger" depart="416.80" departLane="best" from="382886232#1" to="-33831834#6"/>
    <trip id="veh148" type="veh_passenger" depart="419.63" departLane="best" from="33831832#12" to="-1158311140#3"/>
    <trip id="veh149" type="veh_passenger" depart="422.47" departLane="best" departSpeed="max" from="-1206767244" to="69407775#0"/>
    <trip id="veh150" type="veh_passenger" depart="425.30" departLane="best" departSpeed="max" from="-69418904#1" to="-69407783#0"/>
    <trip id="veh151" type="veh_passenger" depart="428.14" departLane="best" from="33831834#10" to="-315875677#0"/>
    <trip id="veh152" type="veh_passenger" depart="430.98" departLane="best" from="-33489337#6" to="69408945#4"/>
    <trip id="veh153" type="veh_passenger" depart="433.81" departLane="best" from="942717452#0" to="-497459324"/>
    <trip id="veh154" type="veh_passenger" depart="436.65" departLane="best" from="1162682152" to="-942717452#22"/>
    <trip id="veh155" type="veh_passenger" depart="439.48" departLane="best" from="942717452#27" to="1157296692#1"/>
    <trip id="veh156" type="veh_passenger" depart="442.32" departLane="best" from="900307854#1" to="-1158311147"/>
    <trip id="veh157" type="veh_passenger" depart="445.15" departLane="best" from="942717452#13" to="-259250252#0"/>
    <trip id="veh158" type="veh_passenger" depart="447.99" departLane="best" from="942717449#5" to="-33831834#4"/>
    <trip id="veh159" type="veh_passenger" depart="450.82" departLane="best" from="-1158311140#5" to="1036826699#0"/>
    <trip id="veh160" type="veh_passenger" depart="453.66" departLane="best" from="262473505#5" to="-69407785#8"/>
    <trip id="veh161" type="veh_passenger" depart="456.49" departLane="best" from="-69407780#2" to="1171580654"/>
    <trip id="veh162" type="veh_passenger" depart="459.33" departLane="best" from="-1013948620#3" to="786074814#1"/>
    <trip id="veh163" type="veh_passenger" depart="462.16" departLane="best" from="1014513926" to="305675294#12"/>
    <trip id="veh164" type="veh_passenger" depart="465.00" departLane="best" from="305638288" to="259250250#3"/>
    <trip id="veh165" type="veh_passenger" depart="467.84" departLane="best" from="-382886232#2" to="-1087953539#4"/>
    <trip id="veh166" type="veh_passenger" depart="470.67" departLane="best" departSpeed="max" from="1171585885" to="-69408941#3"/>
    <trip id="veh167" type="veh_passenger" depart="473.51" departLane="best" departSpeed="max" from="-33487835" to="69407788"/>
    <trip id="veh168" type="veh_passenger" depart="476.34" departLane="best" from="262473503#2" to="-69407782#2"/>
    <trip id="veh170" type="veh_passenger" depart="482.01" departLane="best" from="900307854#2" to="259250252#4"/>
    <trip id="veh171" type="veh_passenger" depart="484.85" departLane="best" from="69408959#1" to="1171586070"/>
    <trip id="veh172" type="veh_passenger" depart="487.68" departLane="best" from="-315875677#1" to="1158311144"/>
    <trip id="veh173" type="veh_passenger" depart="490.52" departLane="best" from="-1013948620#1" to="-69407773#0"/>
    <trip id="veh174" type="veh_passenger" depart="493.35" departLane="best" from="-69408949#4" to="1171580822"/>
    <trip id="veh175" type="veh_passenger" depart="496.19" departLane="best" from="1171581176" to="107457118#2"/>
    <trip id="veh176" type="veh_passenger" depart="499.02" departLane="best" departSpeed="max" from="-69408954#5" to="-305675294#7"/>
    <trip id="veh177" type="veh_passenger" depart="501.86" departLane="best" from="-786074814#1" to="69408959#9"/>
    <trip id="veh179" type="veh_passenger" depart="507.53" departLane="best" from="-1155192039#0" to="1157079683#2"/>
    <trip id="veh180" type="veh_passenger" depart="510.37" departLane="best" from="1158311140#4" to="-69408944#1"/>
    <trip id="veh181" type="veh_passenger" depart="513.20" departLane="best" from="69407758" to="33488726#0"/>
    <trip id="veh182" type="veh_passenger" depart="516.04" departLane="best" departSpeed="max" from="1171585984" to="-315875673#0"/>
    <trip id="veh183" type="veh_passenger" depart="518.87" departLane="best" departSpeed="max" from="-1171586168#1" to="-1036826698#2"/>
    <trip id="veh184" type="veh_passenger" depart="521.71" departLane="best" from="-259250252#3" to="1087953540#1"/>
    <trip id="veh185" type="veh_passenger" depart="524.54" departLane="best" from="69407785#8" to="-1087964674#1"/>
    <trip id="veh186" type="veh_passenger" depart="527.38" departLane="best" from="-69408939#0" to="1171586168#1"/>
    <trip id="veh187" type="veh_passenger" depart="530.21" departLane="best" departSpeed="max" from="-1171586115#1" to="262473505#6"/>
    <trip id="veh188" type="veh_passenger" depart="533.05" departLane="best" from="-942717452#22" to="-33488726#6"/>
    <trip id="veh190" type="veh_passenger" depart="538.72" departLane="best" from="305677251" to="33831832#3"/>
    <trip id="veh191" type="veh_passenger" depart="541.55" departLane="best" from="-1158311140#2" to="1014320627#0"/>
    <trip id="veh192" type="veh_passenger" depart="544.39" departLane="best" departSpeed="max" from="-1171585868" to="942717449#3"/>
    <trip id="veh194" type="veh_passenger" depart="550.06" departLane="best" from="-262473503#3" to="69408929"/>
    <trip id="veh195" type="veh_passenger" depart="552.90" departLane="best" from="-69408959#7" to="382886232#3"/>
    <trip id="veh196" type="veh_passenger" depart="555.73" departLane="best" departSpeed="max" from="1171585926" to="942717452#36"/>
    <trip id="veh197" type="veh_passenger" depart="558.57" departLane="best" from="69408955#1" to="1171586011"/>
    <trip id="veh198" type="veh_passenger" depart="561.40" departLane="best" from="262473503#2" to="1134951852#3"/>
    <trip id="veh199" type="veh_passenger" depart="564.24" departLane="best" from="69407779#1" to="1158311144"/>
    <trip id="veh200" type="veh_passenger" depart="567.07" departLane="best" departSpeed="max" from="69408958#0" to="315875687#2"/>
    <trip id="veh201" type="veh_passenger" depart="569.91" departLane="best" from="-786074814#2" to="-33831834#11"/>
    <trip id="veh202" type="veh_passenger" depart="572.74" departLane="best" from="-262473503#0" to="1171587337"/>
    <trip id="veh203" type="veh_passenger" depart="575.58" departLane="best" from="315875685#0" to="1157079685"/>
    <trip id="veh204" type="veh_passenger" depart="578.41" departLane="best" departSpeed="max" from="1157296690#0" to="-382886232#2"/>
    <trip id="veh205" type="veh_passenger" depart="581.25" departLane="best" from="-1134951852#1" to="-69407770"/>
    <trip id="veh206" type="veh_passenger" depart="584.09" departLane="best" from="-262473511#0" to="-69407787#2"/>
    <trip id="veh207" type="veh_passenger" depart="586.92" departLane="best" from="1036826697#0" to="-1171585926"/>
    <trip id="veh210" type="veh_passenger" depart="595.43" departLane="best" from="-69407786#7" to="1158311141#1"/>
    <trip id="veh211" type="veh_passenger" depart="598.26" departLane="best" from="-69408939#3" to="-305638297#0"/>
    <trip id="veh212" type="veh_passenger" depart="601.10" departLane="best" from="-69408941#4" to="69418904#1"/>
    <trip id="veh213" type="veh_passenger" depart="603.93" departLane="best" from="107457118#4" to="262473505#5"/>
    <trip id="veh214" type="veh_passenger" depart="606.77" departLane="best" from="-69407776" to="-1014320622"/>
    <trip id="veh215" type="veh_passenger" depart="609.60" departLane="best" from="-33831834#8" to="33488726#6"/>
    <trip id="veh216" type="veh_passenger" depart="612.44" departLane="best" from="69407786#4" to="942717447#1"/>
    <trip id="veh217" type="veh_passenger" depart="615.27" departLane="best" from="-69408941#2" to="315888538"/>
    <trip id="veh218" type="veh_passenger" depart="618.11" departLane="best" from="1036826699#3" to="1171582026"/>
    <trip id="veh219" type="veh_passenger" depart="620.95" departLane="best" departSpeed="max" from="-1206767244" to="-315875661"/>
    <trip id="veh220" type="veh_passenger" depart="623.78" departLane="best" departSpeed="max" from="-69408950#8" to="-1060150651#1"/>
    <trip id="veh221" type="veh_passenger" depart="626.62" departLane="best" from="-33831832#4" to="259250254"/>
    <trip id="veh222" type="veh_passenger" depart="629.45" departLane="best" from="-69407786#0" to="-1207962908"/>
    <trip id="veh223" type="veh_passenger" depart="632.29" departLane="best" departSpeed="max" from="-783797997" to="-1171581072"/>
    <trip id="veh224" type="veh_passenger" depart="635.12" departLane="best" from="1157079683#0" to="-1060150650#1"/>
    <trip id="veh226" type="veh_passenger" depart="640.79" departLane="best" from="-1060150654#3" to="1171587756#3"/>
    <trip id="veh228" type="veh_passenger" depart="646.46" departLane="best" departSpeed="max" from="-1087953540#2" to="-786420620#2"/>
    <trip id="veh229" type="veh_passenger" depart="649.30" departLane="best" departSpeed="max" from="-1171587337" to="-69408939#3"/>
    <trip id="veh230" type="veh_passenger" depart="652.13" departLane="best" from="315875673#1" to="-786420620#2"/>
    <trip id="veh231" type="veh_passenger" depart="654.97" departLane="best" from="315875655" to="69407783#2"/>
    <trip id="veh232" type="veh_passenger" depart="657.80" departLane="best" departSpeed="max" from="-262473503#6" to="-1087964680#4"/>
    <trip id="veh233" type="veh_passenger" depart="660.64" departLane="best" from="-1060150651#0" to="1158311140#4"/>
    <trip id="veh235" type="veh_passenger" depart="666.31" departLane="best" from="1171581056" to="33488726#7"/>
    <trip id="veh236" type="veh_passenger" depart="669.15" departLane="best" from="900307855#3" to="-262473509#1"/>
    <trip id="veh237" type="veh_passenger" depart="671.98" departLane="best" from="-1060150651#1" to="-1171586168#0"/>
    <trip id="veh239" type="veh_passenger" depart="677.65" departLane="best" from="1060150655#1" to="-315875659#0"/>
    <trip id="veh240" type="veh_passenger" depart="680.49" departLane="best" from="1207962908" to="33831832#14"/>
    <trip id="veh242" type="veh_passenger" depart="686.16" departLane="best" from="305675294#3" to="-1158311145"/>
    <trip id="veh243" type="veh_passenger" depart="688.99" departLane="best" from="69407763#0" to="942717452#1"/>
    <trip id="veh244" type="veh_passenger" depart="691.83" departLane="best" from="-1158311140#4" to="-1052051488"/>
    <trip id="veh245" type="veh_passenger" depart="694.66" departLane="best" from="-315888532" to="259250252#4"/>
    <trip id="veh246" type="veh_passenger" depart="697.50" departLane="best" from="942717449#1" to="-942717452#17"/>
    <trip id="veh247" type="veh_passenger" depart="700.34" departLane="best" from="259250252#2" to="-1087964675#1"/>
    <trip id="veh248" type="veh_passenger" depart="703.17" departLane="best" from="1171587369" to="1171586132"/>
    <trip id="veh249" type="veh_passenger" depart="706.01" departLane="best" departSpeed="max" from="-1157296690#1" to="33831832#7"/>
    <trip id="veh250" type="veh_passenger" depart="708.84" departLane="best" from="69407785#9" to="1171581930"/>
    <trip id="veh251" type="veh_passenger" depart="711.68" departLane="best" departSpeed="max" from="-1162682153" to="942717452#32"/>
    <trip id="veh252" type="veh_passenger" depart="714.51" departLane="best" from="33489337#2" to="-69408954#3"/>
    <trip id="veh253" type="veh_passenger" depart="717.35" departLane="best" from="-69408949#2" to="-784676882#0"/>
    <trip id="veh254" type="veh_passenger" depart="720.18" departLane="best" from="-942717452#33" to="-69408950#0"/>
    <trip id="veh255" type="veh_passenger" depart="723.02" departLane="best" from="-1158311140#0" to="942717449#6"/>
    <trip id="veh256" type="veh_passenger" depart="725.85" departLane="best" from="1158311141#0" to="69407782#4"/>
    <trip id="veh257" type="veh_passenger" depart="728.69" departLane="best" from="259250250#0" to="1036826699#1"/>
    <trip id="veh258" type="veh_passenger" depart="731.52" departLane="best" from="262473508" to="942717452#10"/>
    <trip id="veh259" type="veh_passenger" depart="734.36" departLane="best" from="-262473509#2" to="69407767#1"/>
    <trip id="veh260" type="veh_passenger" depart="737.20" departLane="best" from="1014513926" to="1087964677"/>
    <trip id="veh261" type="veh_passenger" depart="740.03" departLane="best" departSpeed="max" from="-69408950#8" to="315875662#1"/>
    <trip id="veh262" type="veh_passenger" depart="742.87" departLane="best" from="-262473508" to="69408939#0"/>
    <trip id="veh263" type="veh_passenger" depart="745.70" departLane="best" from="69407779#1" to="-1093793236#1"/>
    <trip id="veh264" type="veh_passenger" depart="748.54" departLane="best" departSpeed="max" from="-783797996" to="1171585945"/>
    <trip id="veh265" type="veh_passenger" depart="751.37" departLane="best" from="-69407775#0" to="-1060150651#1"/>