<?xml version="1.0" encoding="UTF-8"?>

<!-- generated on 2025-03-26 02:49:45 by Eclipse SUMO polyconvert Version 1.22.0
<polyconvertConfiguration xmlns:xsi="http://www.w3.org/2001/XMLSchema-instance" xsi:noNamespaceSchemaLocation="http://sumo.dlr.de/xsd/polyconvertConfiguration.xsd">

    <input>
        <net-file value="osm.net.xml"/>
        <osm-files value="osm_bbox.osm.xml"/>
        <osm.keep-full-type value="true"/>
        <type-file value="C:\Program%20Files%20(x86)\Eclipse\Sumo\data\typemap\osmPolyconvert.typ.xml"/>
    </input>

    <output>
        <output-file value="osm.poly.xml"/>
    </output>

    <report>
        <verbose value="true"/>
    </report>

</polyconvertConfiguration>
-->

<additional xmlns:xsi="http://www.w3.org/2001/XMLSchema-instance" xsi:noNamespaceSchemaLocation="http://sumo.dlr.de/xsd/additional_file.xsd">
    <location netOffset="-504562.22,-4064647.38" convBoundary="0.00,0.00,4579.85,6616.22" origBoundary="3.051121,36.727489,3.102390,36.787160" projParameter="+proj=utm +zone=31 +ellps=WGS84 +datum=WGS84 +units=m +no_defs"/>

    <poly id="1124100832" type="amenity.restaurant" color="237,199,199" fill="1" layer="-1.00" shape="719.325470,5247.836403 703.692861,5244.831664 706.192408,5228.925974 721.370578,5230.887702 719.325470,5247.836403"/>
    <poly id="1124100832#1" type="building.commercial" color="255,230,230" fill="1" layer="-1.00" shape="719.325470,5247.836403 703.692861,5244.831664 706.192408,5228.925974 721.370578,5230.887702 719.325470,5247.836403"/>
    <poly id="1124100833" type="building.commercial" color="255,230,230" fill="1" layer="-1.00" shape="719.325470,5247.836403 721.370578,5230.887702 741.144128,5233.440234 738.741928,5250.555102 719.325470,5247.836403"/>
    <poly id="1124100833#1" type="shop.stationery" color="237,199,255" fill="1" layer="-1.00" shape="719.325470,5247.836403 721.370578,5230.887702 741.144128,5233.440234 738.741928,5250.555102 719.325470,5247.836403"/>
    <poly id="1124100834" type="amenity.fast_food" color="237,199,199" fill="1" layer="-1.00" shape="717.460472,5262.156196 719.325470,5247.836403 738.741928,5250.555102 736.725166,5264.919169 717.460472,5262.156196"/>
    <poly id="1124100834#1" type="building.commercial" color="255,230,230" fill="1" layer="-1.00" shape="717.460472,5262.156196 719.325470,5247.836403 738.741928,5250.555102 736.725166,5264.919169 717.460472,5262.156196"/>
    <poly id="1124100835" type="building.commercial" color="255,230,230" fill="1" layer="-1.00" shape="709.549080,5197.867899 708.366952,5204.644937 701.746092,5203.642492 700.474398,5210.963028 711.993816,5212.955765 711.606003,5219.577992 691.136607,5216.614663 696.120268,5195.341531 709.549080,5197.867899"/>
    <poly id="1124100835#1" type="shop.shoes" color="237,199,255" fill="1" layer="-1.00" shape="709.549080,5197.867899 708.366952,5204.644937 701.746092,5203.642492 700.474398,5210.963028 711.993816,5212.955765 711.606003,5219.577992 691.136607,5216.614663 696.120268,5195.341531 709.549080,5197.867899"/>
    <poly id="1124100836" type="amenity.fast_food" color="237,199,199" fill="1" layer="-1.00" shape="696.120268,5195.341531 709.549080,5197.867899 711.404101,5185.256407 698.849219,5183.684564 696.120268,5195.341531"/>
    <poly id="1124100836#1" type="building.commercial" color="255,230,230" fill="1" layer="-1.00" shape="696.120268,5195.341531 709.549080,5197.867899 711.404101,5185.256407 698.849219,5183.684564 696.120268,5195.341531"/>
    <poly id="1124100837" type="amenity.cafe" color="237,199,199" fill="1" layer="-1.00" shape="698.849219,5183.684564 711.404101,5185.256407 714.991204,5185.713432 716.792555,5173.323767 701.685529,5171.595042 698.849219,5183.684564"/>
    <poly id="1124100837#1" type="building.commercial" color="255,230,230" fill="1" layer="-1.00" shape="698.849219,5183.684564 711.404101,5185.256407 714.991204,5185.713432 716.792555,5173.323767 701.685529,5171.595042 698.849219,5183.684564"/>
    <poly id="1172847689" type="building.yes" color="255,230,230" fill="1" layer="-1.00" shape="976.242185,5149.837992 978.293727,5137.548380 994.827923,5140.287977 994.254528,5143.770778 1004.962041,5145.541523 1005.544357,5142.069822 1012.067016,5143.150089 1012.335797,5141.519607 1019.795363,5142.755792 1017.466057,5156.675870 976.242185,5149.837992"/>
    <poly id="1172847693" type="building.yes" color="255,230,230" fill="1" layer="-1.00" shape="776.281034,5184.331631 795.171188,5186.928107 789.783415,5226.093791 770.884415,5223.508414 776.281034,5184.331631"/>
    <poly id="1172847701" type="building.yes" color="255,230,230" fill="1" layer="-1.00" shape="897.850073,5199.106589 898.532128,5193.094669 907.598097,5194.109925 906.924959,5200.121851 897.850073,5199.106589"/>
    <poly id="1172847712" type="building.yes" color="255,230,230" fill="1" layer="-1.00" shape="813.398432,5193.550934 825.979910,5195.344820 823.479186,5212.748017 815.359242,5211.589238 817.304241,5198.046021 812.842725,5197.410916 813.398432,5193.550934"/>
    <poly id="1172847716" type="building.yes" color="255,230,230" fill="1" layer="-1.00" shape="809.325286,5228.091690 808.509091,5234.658180 790.118570,5232.394774 790.934758,5225.817190 809.325286,5228.091690"/>
    <poly id="1172847717" type="building.yes" color="255,230,230" fill="1" layer="-1.00" shape="809.511067,5230.665362 812.306069,5213.539668 820.167151,5214.809211 817.372140,5231.923809 809.511067,5230.665362"/>
    <poly id="1172847718" type="building.yes" color="255,230,230" fill="1" layer="-1.00" shape="568.973792,4838.305590 572.273407,4842.201181 567.800124,4845.958987 564.500509,4842.063397 568.973792,4838.305590"/>
    <poly id="1172847719" type="building.yes" color="255,230,230" fill="1" layer="-1.00" shape="304.842779,4918.818590 308.432432,4915.037956 316.887945,4923.018580 319.361409,4920.424254 329.136963,4929.648049 323.082776,4936.011911 304.842779,4918.818590"/>
    <poly id="1172847720" type="building.yes" color="255,230,230" fill="1" layer="-1.00" shape="407.867805,5079.003998 414.583411,5086.096276 415.679117,5089.424787 417.275513,5091.122932 416.945922,5090.102192 442.800429,5117.416947 443.762495,5120.346039 439.601660,5124.259397 441.931248,5123.495351 420.957498,5143.184091 420.180971,5143.438775 411.252202,5151.819809 407.521318,5153.026764 402.860508,5157.405752 401.253908,5157.926184 399.095653,5155.650884 394.997934,5143.135705 390.369268,5138.252141 379.634927,5105.499662 407.867805,5079.003998"/>
    <poly id="1172847721" type="building.yes" color="255,230,230" fill="1" layer="-1.00" shape="678.005422,4830.828610 687.791950,4821.738440 696.986791,4831.539129 692.950741,4835.286046 717.110485,4861.080851 711.351087,4866.424072 678.005422,4830.828610"/>
    <poly id="1172847723" type="building.yes" color="255,230,230" fill="1" layer="-1.00" shape="353.019356,5051.151250 360.529162,5042.935732 369.038197,5050.650210 361.528390,5058.865720 353.019356,5051.151250"/>
    <poly id="1172847724" type="building.yes" color="255,230,230" fill="1" layer="-1.00" shape="314.631174,4780.540056 318.436669,4789.582943 297.459691,4798.323282 293.654184,4789.269311 314.631174,4780.540056"/>
    <poly id="1172847726" type="building.yes" color="255,230,230" fill="1" layer="-1.00" shape="380.154433,4963.388752 379.761566,4948.324361 403.716686,4928.060427 405.581857,4928.006047 411.226963,4934.631796 411.331862,4938.392351 413.757563,4941.233547 415.810138,4941.179279 413.756581,4942.919668 416.565757,4946.204805 416.600561,4947.735646 422.517323,4947.583796 430.980487,4957.505796 431.094100,4961.610237 422.013836,4969.281223 417.944397,4969.389778 411.337332,4974.976752 411.424673,4978.238117 400.621252,4987.372386 380.154433,4963.388752"/>
    <poly id="1172847727" type="building.yes" color="255,230,230" fill="1" layer="-1.00" shape="576.513157,5256.257542 581.755046,5235.406028 584.824375,5236.162195 586.237710,5230.561127 598.854059,5233.708035 590.159294,5268.246106 581.147651,5265.999906 583.178209,5257.925491 576.513157,5256.257542"/>
    <poly id="1172847729" type="building.yes" color="255,230,230" fill="1" layer="-1.00" shape="347.478622,5080.355684 354.726326,5077.830671 358.156424,5087.594404 350.908727,5090.119414 347.478622,5080.355684"/>
    <poly id="1172847733" type="building.yes" color="255,230,230" fill="1" layer="-1.00" shape="276.568467,4813.297932 284.025448,4804.050680 293.222158,4811.410496 281.273138,4826.212736 275.118212,4821.295092 279.619170,4815.740099 276.568467,4813.297932"/>
    <poly id="1172847734" type="building.yes" color="255,230,230" fill="1" layer="-1.00" shape="337.819123,5211.379556 330.908487,5217.665273 324.362500,5210.517692 331.273137,5204.231970 337.819123,5211.379556"/>
    <poly id="1172847735" type="building.yes" color="255,230,230" fill="1" layer="-1.00" shape="468.255668,5095.079695 443.497411,5115.853256 421.095969,5089.394667 421.604886,5088.962340 410.448700,5075.788558 416.466389,5070.744791 419.534122,5074.362867 418.694856,5075.072324 423.474801,5080.721402 421.662346,5082.251165 424.533875,5085.647271 437.596030,5074.684023 439.905737,5077.414230 438.736121,5078.400814 443.212844,5083.694753 452.221549,5076.134675 468.255668,5095.079695"/>
    <poly id="1172847736" type="building.yes" color="255,230,230" fill="1" layer="-1.00" shape="434.531074,5035.823780 420.913279,5050.724690 419.636697,5051.500448 418.466912,5052.775450 406.647406,5059.912397 408.225439,5062.509055 402.421164,5068.861915 392.315616,5059.715492 391.147688,5057.795742 383.138160,5050.536340 380.739888,5046.596970 374.326895,5040.791672 370.020687,5033.723003 395.389893,5005.961056 400.049873,5003.146165 402.332252,5006.885800 419.073815,5022.048456 421.394874,5020.652104 425.834776,5027.942734 434.531074,5035.823780"/>
    <poly id="1172847738" type="building.yes" color="255,230,230" fill="1" layer="-1.00" shape="338.429709,5064.842605 346.518222,5058.934731 355.417392,5071.020024 347.328885,5076.927890 338.429709,5064.842605"/>
    <poly id="1172847740" type="building.yes" color="255,230,230" fill="1" layer="-1.00" shape="590.981642,4970.180184 594.928297,4966.510815 596.088788,4965.912499 603.008833,4959.482796 606.472463,4957.687841 610.249471,4954.184769 613.132858,4952.688974 616.856300,4949.230245 621.485511,4953.171034 627.933843,4959.398069 641.464018,4971.963470 637.758431,4975.411106 641.557608,4979.473423 645.443951,4986.930224 651.686723,4993.589776 652.346438,4994.677283 647.962284,4998.690240 627.573381,5009.216087 590.981642,4970.180184"/>
    <poly id="1172847741" type="building.yes" color="255,230,230" fill="1" layer="-1.00" shape="506.861125,4958.914919 477.466048,4987.727984 444.885809,4954.773989 458.493948,4941.448306 460.652294,4943.634877 476.457076,4928.158492 506.861125,4958.914919"/>
    <poly id="1172847742" type="building.yes" color="255,230,230" fill="1" layer="-1.00" shape="443.176470,4917.345529 459.367226,4913.272844 464.522002,4918.999814 466.373922,4926.300035 440.417988,4949.402405 438.632904,4949.856169 429.741372,4939.956097 429.652351,4939.578886 417.817750,4926.404701 416.384253,4920.768671 419.749143,4919.916479 421.767036,4918.131699 439.796430,4913.583055 443.176470,4917.345529"/>
    <poly id="1172847743" type="building.yes" color="255,230,230" fill="1" layer="-1.00" shape="407.738234,4994.952978 441.674986,4966.852280 471.665483,5002.755449 437.728774,5030.856030 407.738234,4994.952978"/>
    <poly id="1172847745" type="building.yes" color="255,230,230" fill="1" layer="-1.00" shape="299.457883,4737.080515 276.284864,4746.795830 272.835788,4738.618410 275.576204,4737.466300 272.189506,4729.444216 280.928494,4725.777416 280.473964,4724.701147 289.212961,4721.034356 291.351925,4726.093934 277.730174,4731.799048 279.361142,4735.649209 284.743786,4733.389310 284.084262,4731.847022 295.269097,4727.161079 299.457883,4737.080515"/>
    <poly id="1172847746" type="building.yes" color="255,230,230" fill="1" layer="-1.00" shape="545.778137,5094.726362 552.062747,5091.124928 555.842582,5097.660914 549.557969,5101.273438 545.778137,5094.726362"/>
    <poly id="1172847748" type="building.yes" color="255,230,230" fill="1" layer="-1.00" shape="344.280893,5194.233630 331.527434,5196.500359 330.237577,5189.344694 342.999970,5187.077969 344.280893,5194.233630"/>
    <poly id="1172847750" type="building.yes" color="255,230,230" fill="1" layer="-1.00" shape="328.012683,5054.065422 334.141707,5057.119483 329.174291,5067.044787 323.036342,5064.001818 328.012683,5054.065422"/>
    <poly id="1172847751" type="building.yes" color="255,230,230" fill="1" layer="-1.00" shape="285.662125,5206.602026 289.610776,5214.702092 283.924748,5217.449905 282.231194,5213.976863 281.142187,5214.508705 278.887085,5209.881684 285.662125,5206.602026"/>
    <poly id="1173895156" type="building.yes" color="255,230,230" fill="1" layer="-1.00" shape="248.181615,4747.900341 243.361395,4749.849978 241.472033,4745.245362 246.292255,4743.295723 248.181615,4747.900341"/>
    <poly id="1173895165" type="building.yes" color="255,230,230" fill="1" layer="-1.00" shape="252.272309,4757.764234 250.088840,4752.471690 246.277280,4754.044735 248.104261,4758.482924 242.587791,4760.720585 238.328940,4748.338514 241.122987,4747.020029 242.611324,4750.614966 249.395369,4747.812281 248.174402,4744.860882 254.753138,4742.157922 256.152346,4745.542045 262.936393,4742.750464 260.485548,4736.836564 270.027857,4732.915070 276.248539,4747.905100 252.272309,4757.764234"/>
    <poly id="1173895203" type="building.yes" color="255,230,230" fill="1" layer="-1.00" shape="247.005438,4712.945951 255.772670,4706.683403 260.267024,4712.909056 251.490871,4719.171594 247.005438,4712.945951"/>
    <poly id="1173895213" type="building.yes" color="255,230,230" fill="1" layer="-1.00" shape="235.378408,4758.154073 238.859584,4756.902531 241.238720,4763.393215 225.243149,4769.196915 221.643246,4759.366588 204.880037,4765.447219 202.376133,4758.601502 231.644846,4747.968694 235.378408,4758.154073"/>
    <poly id="1173895230" type="building.yes" color="255,230,230" fill="1" layer="-1.00" shape="1019.395146,5277.223782 1018.998398,5283.502111 1015.188120,5283.255577 1015.575935,5276.988336 1019.395146,5277.223782"/>
    <poly id="1173895237" type="building.yes" color="255,230,230" fill="1" layer="-1.00" shape="1041.571914,5084.909443 1048.694506,5082.961767 1054.427829,5103.798017 1047.305260,5105.734595 1041.571914,5084.909443"/>
    <poly id="1173895250" type="building.yes" color="255,230,230" fill="1" layer="-1.00" shape="1105.092213,5072.039211 1094.551553,5074.239712 1074.695251,4980.325128 1085.566262,4978.047171 1087.247627,4986.035175 1086.926317,4986.101520 1105.092213,5072.039211"/>
    <poly id="1173895259" type="building.yes" color="255,230,230" fill="1" layer="-1.00" shape="271.302574,4956.282465 272.520828,4963.959444 276.019378,4963.406780 277.166498,4970.617817 267.358078,4972.154179 264.992685,4957.277258 271.302574,4956.282465"/>
    <poly id="1173895271" type="building.yes" color="255,230,230" fill="1" layer="-1.00" shape="526.352925,5255.783791 526.244280,5258.401653 520.988314,5258.176665 521.096958,5255.558803 526.352925,5255.783791"/>
    <poly id="1173895277" type="building.yes" color="255,230,230" fill="1" layer="-1.00" shape="260.134823,4947.069042 268.863587,4945.299111 270.349818,4952.532525 261.621055,4954.313548 260.134823,4947.069042"/>
    <poly id="1173895287" type="building.yes" color="255,230,230" fill="1" layer="-1.00" shape="326.082955,4948.670630 326.709777,4960.529303 323.370460,4963.522477 324.270954,4980.583878 274.681517,5025.115850 262.427567,5011.586668 293.632970,4983.561489 296.370938,4986.580316 295.058427,4987.766511 298.162046,4991.195984 297.650037,4981.378472 296.633332,4980.257510 296.394894,4975.842399 290.627008,4981.019506 288.566836,4978.755383 281.980687,4979.095525 248.587808,5009.094051 243.468594,5003.444881 246.584655,5000.651222 246.434533,4997.833540 277.881002,4969.597675 282.812927,4975.035994 282.168448,4962.733598 294.394795,4962.097153 290.158513,4957.424633 289.567008,4946.142814 300.936641,4945.550263 305.342374,4950.411464 311.387076,4944.990481 311.625494,4949.427779 326.082955,4948.670630"/>
    <poly id="1173895297" type="building.yes" color="255,230,230" fill="1" layer="-1.00" shape="241.579886,5188.173984 246.721341,5185.825181 251.917568,5197.131781 246.767201,5199.469483 241.579886,5188.173984"/>
    <poly id="1173895298" type="building.yes" color="255,230,230" fill="1" layer="-1.00" shape="244.019399,5055.437636 246.076878,5046.619935 254.160959,5048.488098 252.103471,5057.305797 244.019399,5055.437636"/>
    <poly id="1173895302" type="building.yes" color="255,230,230" fill="1" layer="-1.00" shape="232.344541,4964.136469 236.433074,4977.694294 216.895040,4983.529300 211.470348,4965.533576 237.372365,4957.783059 238.717401,4962.232070 232.344541,4964.136469"/>
    <poly id="1173895313" type="building.yes" color="255,230,230" fill="1" layer="-1.00" shape="221.401102,4984.574555 230.060525,4979.066236 239.511762,4993.769643 230.852342,4999.289045 221.401102,4984.574555"/>
    <poly id="1173895316" type="building.yes" color="255,230,230" fill="1" layer="-1.00" shape="224.977305,5004.676902 232.250501,5004.481309 232.705191,5021.154200 225.440933,5021.349797 224.977305,5004.676902"/>
    <poly id="1173895319" type="building.yes" color="255,230,230" fill="1" layer="-1.00" shape="224.900388,5030.456769 240.761572,5024.719549 245.831515,5038.610719 245.617296,5038.688249 248.789333,5047.397965 240.042043,5050.565614 241.699346,5055.114637 233.960681,5057.916793 232.428118,5053.711721 233.267146,5053.401591 224.900388,5030.456769"/>
    <poly id="1173895334" type="building.yes" color="255,230,230" fill="1" layer="-1.00" shape="268.349727,5112.258134 247.543652,5120.100169 244.420503,5119.710159 245.460353,5111.402158 246.897828,5110.116190 245.276079,5105.844508 250.392050,5101.299297 257.771633,5102.201984 270.432127,5090.960932 272.456587,5093.213937 274.786916,5091.129790 273.782830,5099.260322 276.201046,5099.561200 280.629555,5095.614635 279.399894,5092.363717 283.943148,5090.657986 287.385616,5094.486992 285.407443,5089.305482 288.951010,5087.965253 291.581909,5090.895275 282.010619,5099.398100 284.036786,5098.633839 274.563720,5107.059077 273.929990,5107.291670 268.349727,5112.258134"/>
    <poly id="1173895338" type="building.yes" color="255,230,230" fill="1" layer="-1.00" shape="263.585879,5014.793172 274.384418,5029.719237 268.195717,5037.436397 263.905205,5034.017357 258.477210,5037.918994 256.503618,5040.380505 251.981179,5036.783854 251.562076,5036.206786 255.607494,5031.161795 257.875117,5029.521325 255.886616,5026.769163 250.249163,5022.295544 247.716711,5018.799852 255.876571,5012.936304 260.764743,5016.821580 263.585879,5014.793172"/>
    <poly id="1173895340" type="building.yes" color="255,230,230" fill="1" layer="-1.00" shape="218.595307,5070.798134 226.017592,5059.254578 227.927782,5058.434774 233.164280,5061.776677 231.181428,5064.859391 233.489752,5070.174189 238.128554,5073.127508 239.599105,5076.511671 236.466036,5077.863244 233.286331,5082.808894 216.683771,5089.976699 215.104798,5088.966361 213.046016,5084.228539 209.067349,5081.697133 206.580757,5075.982898 218.595307,5070.798134"/>
    <poly id="1173895344" type="building.yes" color="255,230,230" fill="1" layer="-1.00" shape="263.751642,4958.330383 267.937013,4974.151229 265.830621,4974.704684 267.246524,4980.052264 258.963773,4982.221794 258.456185,4980.302435 246.371228,4983.468193 242.631070,4969.344822 252.797089,4966.677157 251.443519,4961.551472 263.751642,4958.330383"/>
    <poly id="1173895352" type="building.yes" color="255,230,230" fill="1" layer="-1.00" shape="240.109468,5057.620739 241.866799,5058.853040 243.224316,5056.945824 246.480281,5059.232795 239.406888,5069.201338 234.393602,5065.670977 240.109468,5057.620739"/>
    <poly id="1173895353" type="building.yes" color="255,230,230" fill="1" layer="-1.00" shape="251.602074,4949.404832 259.090492,4947.445612 261.619520,4957.031308 254.140034,4958.990531 251.602074,4949.404832"/>
    <poly id="1173895355" type="building.yes" color="255,230,230" fill="1" layer="-1.00" shape="251.833200,4951.002340 253.522834,4961.541551 242.322116,4963.321201 240.632467,4952.781992 251.833200,4951.002340"/>
    <poly id="1344777595" type="natural.tree_row" color="140,196,107" fill="0" layer="-4.00" shape="688.621077,5055.344423 706.493322,5088.312455 707.214731,5090.631318 707.213479,5092.661319 701.029858,5120.533982 700.127402,5122.385942 694.617719,5128.283976"/>
    <poly id="1346162628" type="tourism.museum" color="207,245,201" fill="1" layer="-2.00" shape="761.942251,5095.490673 760.152847,5088.578676 762.786005,5087.626328 762.510199,5086.283914 762.216574,5084.897117 741.527118,5090.918786 736.022306,5088.885367 728.187443,5073.893994 727.054629,5073.039138 726.350282,5071.995969 725.878233,5070.509227 725.941573,5069.100467 727.722450,5061.014841 729.494427,5052.895931 731.391653,5044.277918 732.214991,5040.517934 733.297862,5035.571169 733.851899,5034.362385 734.753829,5033.386769 735.798301,5032.799493 737.217431,5032.456493 763.453980,5018.185149 770.210683,5030.524677 771.343886,5030.758335 771.101338,5033.320645 782.585951,5034.248535 778.401428,5061.456817 777.003630,5070.507755 781.186768,5074.026823 773.828742,5081.521028 769.473058,5082.793992 767.449289,5093.941100 761.942251,5095.490673"/>
    <poly id="1346162629" type="landuse.commercial" color="209,209,204" fill="1" layer="-3.00" shape="782.585951,5034.248535 786.259733,5010.389994 781.951143,5007.647349 763.213371,5017.641447 763.453980,5018.185149 766.769935,5024.243944 769.408437,5029.059912 770.210683,5030.524677 771.343886,5030.758335 771.101338,5033.320645 775.268639,5033.656035 779.248542,5033.980218 782.585951,5034.248535"/>
    <poly id="1363332809" type="building.yes" color="255,230,230" fill="1" layer="-1.00" shape="1012.772961,4950.278176 1046.922632,4940.993586 1033.773158,4893.030334 999.614386,4902.314969 1012.772961,4950.278176"/>
    <poly id="152930548" type="building.yes" color="255,230,230" fill="1" layer="-1.00" shape="303.081819,4720.243556 312.991118,4730.110794 325.876246,4717.294765 330.175327,4721.567993 339.756788,4711.711898 297.167246,4669.212851 288.309322,4677.904650 290.396270,4680.290808 261.633970,4710.214253 271.213775,4718.938687 300.636109,4689.670131 316.815405,4706.296521 303.081819,4720.243556"/>
    <poly id="154060073" type="building.yes" color="255,230,230" fill="1" layer="-1.00" shape="261.995103,4876.663437 263.030751,4875.876426 264.183316,4873.492103 264.006180,4871.107029 262.677676,4868.987534 262.062409,4868.099755 270.268155,4860.272804 262.758074,4853.047079 245.354966,4870.564052 254.388626,4882.139038 261.995103,4876.663437"/>
    <poly id="154060077" type="building.university" color="255,230,230" fill="1" layer="-1.00" shape="346.761170,4884.654252 337.413797,4875.685819 313.688689,4852.599006 304.448273,4843.741600 280.633462,4868.376493 288.973027,4876.368116 304.242347,4860.580508 312.358907,4868.372354 296.080563,4885.202106 305.865019,4894.581180 320.768225,4879.181644 327.243617,4885.386281 312.224319,4900.918854 321.981979,4910.275745 346.761170,4884.654252"/>
    <poly id="154060080" type="building.university" color="255,230,230" fill="1" layer="-1.00" shape="451.635224,4843.571593 441.982550,4853.150200 453.826929,4864.982182 443.522435,4875.203793 457.828400,4889.499848 467.400687,4879.998861 476.401127,4886.848487 488.680513,4887.277270 502.744329,4873.330726 496.563534,4867.159409 486.196490,4877.436396 475.181632,4866.436826 476.976438,4864.663020 468.289399,4855.983250 466.164202,4858.089650 451.635224,4843.571593"/>
    <poly id="154060081" type="building.yes" color="255,230,230" fill="1" layer="-1.00" shape="362.056926,4900.570279 353.726460,4892.434383 346.440097,4899.840251 354.770563,4907.976141 362.056926,4900.570279"/>
    <poly id="154060085" type="building.yes" color="255,230,230" fill="1" layer="-1.00" shape="313.334652,4800.562002 292.555492,4822.447554 306.309267,4835.389706 327.079507,4813.504182 313.334652,4800.562002"/>
    <poly id="154060086" type="building.university" color="255,230,230" fill="1" layer="-1.00" shape="346.975729,4915.048929 354.342352,4907.720757 346.181444,4899.584966 338.814821,4906.913145 346.975729,4915.048929"/>
    <poly id="154060087" type="building.yes" color="255,230,230" fill="1" layer="-1.00" shape="269.817993,4883.035185 293.542875,4906.576687 303.061422,4897.064392 279.345463,4873.522870 269.817993,4883.035185"/>
    <poly id="154060089" type="building.university" color="255,230,230" fill="1" layer="-1.00" shape="459.554184,4838.140723 472.180907,4824.747930 493.658533,4844.849862 481.031813,4858.231530 459.554184,4838.140723"/>
    <poly id="154060090" type="building.retail" color="255,230,230" fill="1" layer="-1.00" shape="448.752614,4782.880636 440.216011,4791.428259 497.476131,4848.157807 506.021660,4839.610246 448.752614,4782.880636"/>
    <poly id="154060091" type="building.yes" color="255,230,230" fill="1" layer="-1.00" shape="318.640677,4823.005972 333.536126,4836.969367 341.724596,4828.310508 326.829146,4814.347099 318.640677,4823.005972"/>
    <poly id="154060092" type="building.yes" color="255,230,230" fill="1" layer="-1.00" shape="422.504333,4755.754228 406.270964,4740.547496 402.114494,4736.662564 395.076672,4746.076349 414.931861,4763.769979 422.504333,4755.754228"/>
    <poly id="154060094" type="building.yes" color="255,230,230" fill="1" layer="-1.00" shape="335.430050,4926.878429 346.171901,4916.191036 338.813707,4908.854402 328.080780,4919.541809 335.430050,4926.878429"/>
    <poly id="154060095" type="building.university" color="255,230,230" fill="1" layer="-1.00" shape="272.588629,4907.241467 280.204014,4901.776980 261.995103,4876.663437 254.388626,4882.139038 272.588629,4907.241467"/>
    <poly id="154060096" type="building.college" color="255,230,230" fill="1" layer="-1.00" shape="502.744329,4873.330726 496.563534,4867.159409 491.006293,4862.896445 489.591528,4855.829429 506.807108,4839.411040 522.762832,4855.671626 502.744329,4873.330726"/>
    <poly id="154060098" type="building.yes" color="255,230,230" fill="1" layer="-1.00" shape="262.758074,4853.047079 270.268155,4860.272804 272.613940,4862.525991 302.357834,4831.893190 292.501972,4822.403152 262.758074,4853.047079"/>
    <poly id="154060100" type="building.university" color="255,230,230" fill="1" layer="-1.00" shape="337.413797,4875.685819 343.905736,4868.601181 342.411208,4860.358296 337.141242,4852.989585 328.237975,4847.615518 319.841310,4845.858036 313.688689,4852.599006 337.413797,4875.685819"/>
    <poly id="154060101" type="building.university" color="255,230,230" fill="1" layer="-1.00" shape="361.614284,4755.053337 446.988176,4839.375749 394.822326,4892.169718 368.234445,4866.163658 410.238547,4823.613449 393.970001,4807.696773 387.942606,4813.794373 386.239042,4812.129451 392.382498,4805.954266 377.157509,4790.925660 349.985306,4818.209621 324.137504,4792.670029 361.614284,4755.053337"/>
    <poly id="154060102" type="building.university" color="255,230,230" fill="1" layer="-1.00" shape="415.457044,4857.971206 431.351623,4841.673917 418.463411,4829.220156 402.577757,4845.517474 415.457044,4857.971206"/>
    <poly id="154060104" type="building.university" color="255,230,230" fill="1" layer="-1.00" shape="395.196032,4878.703151 381.772610,4865.838697 395.568748,4851.570128 408.983247,4864.434598 395.196032,4878.703151"/>
    <poly id="154060105" type="building.university" color="255,230,230" fill="1" layer="-1.00" shape="341.952934,4788.109964 354.440029,4800.042011 371.200881,4782.658006 358.713784,4770.725935 341.952934,4788.109964"/>
    <poly id="154060106" type="building.college" color="255,230,230" fill="1" layer="-1.00" shape="501.295345,4863.789970 497.388855,4859.905139 504.318106,4853.020554 508.037293,4856.727790 501.295345,4863.789970"/>