<?xml version="1.0" encoding="UTF-8"?>

<!-- generated on 2025-03-26 02:49:45 by Eclipse SUMO netconvert Version 1.22.0
<netconvertConfiguration xmlns:xsi="http://www.w3.org/2001/XMLSchema-instance" xsi:noNamespaceSchemaLocation="http://sumo.dlr.de/xsd/netconvertConfiguration.xsd">

    <input>
        <type-files value="C:\Program%20Files%20(x86)\Eclipse\Sumo\data\typemap\osmNetconvert.typ.xml"/>
        <osm-files value="osm_bbox.osm.xml"/>
    </input>

    <output>
        <output-file value="osm.net.xml"/>
        <output.street-names value="true"/>
        <output.original-names value="true"/>
    </output>

    <projection>
        <proj.utm value="true"/>
    </projection>

    <processing>
        <geometry.remove value="true"/>
        <roundabouts.guess value="true"/>
    </processing>

    <tls_building>
        <tls.discard-simple value="true"/>
        <tls.join value="true"/>
        <tls.guess-signals value="true"/>
        <tls.default-type value="actuated"/>
    </tls_building>

    <ramp_guessing>
        <ramps.guess value="true"/>
    </ramp_guessing>

    <junctions>
        <junctions.join value="true"/>
        <junctions.corner-detail value="5"/>
    </junctions>

    <report>
        <verbose value="true"/>
    </report>

</netconvertConfiguration>
-->

<net version="1.20" junctionCornerDetail="5" limitTurnSpeed="5.50" xmlns:xsi="http://www.w3.org/2001/XMLSchema-instance" xsi:noNamespaceSchemaLocation="http://sumo.dlr.de/xsd/net_file.xsd">

    <location netOffset="-504562.22,-4064647.38" convBoundary="0.00,0.00,4579.84,6616.22" origBoundary="3.051121,36.727489,3.102390,36.787160" projParameter="+proj=utm +zone=31 +ellps=WGS84 +datum=WGS84 +units=m +no_defs"/>

    <type id="highway.footway" priority="1" numLanes="1" speed="2.78" allow="pedestrian" oneway="1" width="2.00"/>
    <type id="highway.pedestrian" priority="1" numLanes="1" speed="2.78" allow="pedestrian" oneway="1" width="2.00"/>
    <type id="highway.primary" priority="12" numLanes="2" speed="27.78" disallow="tram rail_urban rail rail_electric rail_fast ship container cable_car subway aircraft wheelchair scooter drone" oneway="0"/>
    <type id="highway.primary_link" priority="7" numLanes="1" speed="22.22" disallow="tram rail_urban rail rail_electric rail_fast ship container cable_car subway aircraft wheelchair scooter drone" oneway="0"/>
    <type id="highway.residential" priority="3" numLanes="1" speed="13.89" disallow="tram rail_urban rail rail_electric rail_fast ship container cable_car subway aircraft wheelchair scooter drone" oneway="0"/>
    <type id="highway.secondary" priority="11" numLanes="1" speed="27.78" disallow="tram rail_urban rail rail_electric rail_fast ship container cable_car subway aircraft wheelchair scooter drone" oneway="0"/>
    <type id="highway.service" priority="1" numLanes="1" speed="5.56" allow="pedestrian delivery bicycle" oneway="0"/>
    <type id="highway.steps" priority="1" numLanes="1" speed="1.39" allow="pedestrian" oneway="1" width="2.00"/>
    <type id="highway.tertiary" priority="10" numLanes="1" speed="22.22" disallow="tram rail_urban rail rail_electric rail_fast ship container cable_car subway aircraft wheelchair scooter drone" oneway="0"/>
    <type id="highway.unclassified" priority="4" numLanes="1" speed="13.89" disallow="tram rail_urban rail rail_electric rail_fast ship container cable_car subway aircraft wheelchair scooter drone" oneway="0"/>
    <type id="railway.rail" priority="20" numLanes="1" speed="44.44" allow="rail" oneway="1"/>
    <type id="railway.subway" priority="18" numLanes="1" speed="27.78" allow="subway" oneway="1"/>

    <edge id=":10280110276_0" function="internal">
        <lane id=":10280110276_0_0" index="0" disallow="tram rail_urban rail rail_electric rail_fast ship container cable_car subway aircraft wheelchair scooter drone" speed="13.89" length="13.87" shape="860.62,5233.32 859.83,5237.24 859.38,5239.95 859.08,5242.68 858.73,5246.67"/>
        <lane id=":10280110276_0_1" index="1" disallow="tram rail_urban rail rail_electric rail_fast ship container cable_car subway aircraft wheelchair scooter drone" speed="13.89" length="13.87" shape="857.49,5232.67 856.68,5236.70 856.21,5239.48 855.90,5242.29 855.54,5246.39"/>
        <lane id=":10280110276_0_2" index="2" disallow="tram rail_urban rail rail_electric rail_fast ship container cable_car subway aircraft wheelchair scooter drone" speed="13.89" length="13.87" shape="854.36,5232.02 853.52,5236.16 853.05,5239.02 852.72,5241.90 852.35,5246.11"/>
    </edge>
    <edge id=":10280110276_3" function="internal">
        <lane id=":10280110276_3_0" index="0" disallow="tram rail_urban rail rail_electric rail_fast ship container cable_car subway aircraft wheelchair scooter drone" speed="7.89" length="11.94" shape="854.36,5232.02 853.25,5235.69 851.69,5238.29 849.65,5239.81 847.16,5240.26"/>
    </edge>
    <edge id=":10280110276_4" function="internal">
        <lane id=":10280110276_4_0" index="0" disallow="tram rail_urban rail rail_electric rail_fast ship container cable_car subway aircraft wheelchair scooter drone" speed="7.90" length="14.41" shape="847.26,5237.07 851.18,5237.75 853.86,5239.54 855.32,5242.42 855.54,5246.39"/>
        <lane id=":10280110276_4_1" index="1" disallow="tram rail_urban rail rail_electric rail_fast ship container cable_car subway aircraft wheelchair scooter drone" speed="7.22" length="11.83" shape="847.26,5237.07 849.78,5237.70 851.47,5239.42 852.32,5242.22 852.35,5246.11"/>
    </edge>
    <edge id=":10280110276_6" function="internal">
        <lane id=":10280110276_6_0" index="0" disallow="tram rail_urban rail rail_electric rail_fast ship container cable_car subway aircraft wheelchair scooter drone" speed="3.65" length="4.67" shape="847.26,5237.07 848.43,5237.90 848.81,5238.72 848.38,5239.50 847.16,5240.26"/>
    </edge>
    <edge id=":10629942344_0" function="internal">
        <lane id=":10629942344_0_0" index="0" allow="pedestrian delivery bicycle" speed="5.52" length="5.57" shape="955.34,5147.58 953.67,5147.49 952.35,5147.82 951.39,5148.57 950.79,5149.75"/>
    </edge>
    <edge id=":10629942344_1" function="internal">
        <lane id=":10629942344_1_0" index="0" allow="pedestrian delivery bicycle" speed="3.65" length="4.67" shape="955.34,5147.58 954.29,5146.60 954.02,5145.75 954.55,5145.02 955.86,5144.43"/>
    </edge>
    <edge id=":10629942344_2" function="internal">
        <lane id=":10629942344_2_0" index="0" allow="pedestrian delivery bicycle" speed="4.91" length="5.17" shape="953.54,5140.70 953.33,5142.13 953.64,5143.23 954.48,5143.99 955.86,5144.43"/>
    </edge>
    <edge id=":10629942344_3" function="internal">
        <lane id=":10629942344_3_0" index="0" disallow="tram rail_urban rail rail_electric rail_fast ship container cable_car subway aircraft wheelchair scooter drone" speed="16.67" length="9.46" shape="953.54,5140.70 950.79,5149.75"/>
        <lane id=":10629942344_3_1" index="1" disallow="tram rail_urban rail rail_electric rail_fast ship container cable_car subway aircraft wheelchair scooter drone" speed="16.67" length="9.46" shape="950.48,5139.77 947.73,5148.82"/>
    </edge>
    <edge id=":10629942346_0" function="internal">
        <lane id=":10629942346_0_0" index="0" allow="pedestrian delivery bicycle" speed="3.65" length="4.67" shape="1024.47,5154.62 1025.55,5155.57 1025.84,5156.42 1025.33,5157.15 1024.04,5157.79"/>
    </edge>
    <edge id=":10629942347_0" function="internal">
        <lane id=":10629942347_0_0" index="0" allow="pedestrian delivery bicycle" speed="3.65" length="4.67" shape="984.52,5089.17 985.04,5087.82 985.73,5087.25 986.60,5087.46 987.64,5088.45"/>
    </edge>
    <edge id=":10629942353_0" function="internal">
        <lane id=":10629942353_0_0" index="0" allow="pedestrian delivery bicycle" speed="6.26" length="6.38" shape="963.18,5124.14 961.12,5124.30 959.53,5124.79 958.43,5125.59 957.80,5126.72"/>
    </edge>
    <edge id=":10629942353_1" function="internal">
        <lane id=":10629942353_1_0" index="0" allow="pedestrian delivery bicycle" speed="3.65" length="4.67" shape="963.18,5124.14 961.98,5123.34 961.58,5122.54 961.97,5121.74 963.17,5120.94"/>
    </edge>
    <edge id=":10629942353_2" function="internal">
        <lane id=":10629942353_2_0" index="0" allow="pedestrian delivery bicycle" speed="4.53" length="4.67" shape="960.26,5118.43 960.17,5119.53 960.62,5120.32 961.62,5120.78 963.17,5120.94"/>
    </edge>
    <edge id=":10629942353_3" function="internal">
        <lane id=":10629942353_3_0" index="0" disallow="tram rail_urban rail rail_electric rail_fast ship container cable_car subway aircraft wheelchair scooter drone" speed="16.67" length="8.63" shape="960.26,5118.43 957.80,5126.72"/>
        <lane id=":10629942353_3_1" index="1" disallow="tram rail_urban rail rail_electric rail_fast ship container cable_car subway aircraft wheelchair scooter drone" speed="16.67" length="8.63" shape="957.19,5117.53 954.74,5125.79"/>
    </edge>
    <edge id=":10865813005_0" function="internal">
        <lane id=":10865813005_0_0" index="0" allow="rail" speed="44.44" length="3.00" shape="737.30,4741.18 734.72,4739.65"/>
    </edge>
    <edge id=":10865813005_1" function="internal">
        <lane id=":10865813005_1_0" index="0" allow="rail" speed="44.44" length="3.00" shape="737.30,4741.18 734.79,4739.54"/>
    </edge>
    <edge id=":10865813005_2" function="internal">
        <lane id=":10865813005_2_0" index="0" allow="rail rail_electric rail_fast" speed="44.44" length="3.00" shape="737.30,4741.18 734.72,4739.65"/>
    </edge>
    <edge id=":10865813005_3" function="internal">
        <lane id=":10865813005_3_0" index="0" allow="rail" speed="44.44" length="3.00" shape="737.30,4741.18 734.79,4739.54"/>
    </edge>
    <edge id=":10865813006_0" function="internal">
        <lane id=":10865813006_0_0" index="0" allow="rail rail_electric rail_fast" speed="44.44" length="2.91" shape="696.96,4712.93 694.69,4711.12"/>
    </edge>
    <edge id=":10865813006_1" function="internal">
        <lane id=":10865813006_1_0" index="0" allow="rail" speed="44.44" length="2.91" shape="696.96,4712.93 694.76,4711.04"/>
    </edge>
    <edge id=":10865813006_2" function="internal">
        <lane id=":10865813006_2_0" index="0" allow="rail" speed="44.44" length="2.90" shape="697.01,4712.87 694.69,4711.12"/>
    </edge>
    <edge id=":10865813006_3" function="internal">
        <lane id=":10865813006_3_0" index="0" allow="rail" speed="44.44" length="2.90" shape="697.01,4712.87 696.31,4712.37 695.84,4712.01 695.40,4711.62 694.76,4711.04"/>
    </edge>
    <edge id=":10865813007_0" function="internal">
        <lane id=":10865813007_0_0" index="0" allow="rail rail_electric rail_fast" speed="44.44" length="33.52" shape="673.90,4691.99 651.96,4666.65"/>
    </edge>
    <edge id=":10865813007_1" function="internal">
        <lane id=":10865813007_1_0" index="0" allow="rail" speed="44.44" length="33.59" shape="673.90,4691.99 669.82,4686.76 664.00,4678.46 658.28,4670.07 654.53,4664.56"/>
    </edge>
    <edge id=":10865813007_2" function="internal">
        <lane id=":10865813007_2_0" index="0" allow="rail" speed="44.44" length="33.52" shape="673.98,4691.92 669.43,4687.09 662.78,4679.47 656.22,4671.76 651.96,4666.65"/>
    </edge>
    <edge id=":10865813007_3" function="internal">
        <lane id=":10865813007_3_0" index="0" allow="rail" speed="44.44" length="33.59" shape="673.98,4691.92 669.79,4686.79 663.95,4678.51 658.26,4670.09 654.53,4664.56"/>
    </edge>
    <edge id=":11920406189_0" function="internal">
        <lane id=":11920406189_0_0" index="0" disallow="tram rail_urban rail rail_electric rail_fast ship container cable_car subway aircraft wheelchair scooter drone" speed="7.76" length="8.39" shape="610.70,4930.83 612.24,4932.77 613.16,4934.68 613.46,4936.56 613.14,4938.42"/>
    </edge>
    <edge id=":11920406194_0" function="internal">
        <lane id=":11920406194_0_0" index="0" disallow="tram rail_urban rail rail_electric rail_fast ship container cable_car subway aircraft wheelchair scooter drone" speed="13.89" length="5.31" shape="670.25,4994.69 674.89,4992.11"/>
    </edge>
    <edge id=":12113875519_0" function="internal">
        <lane id=":12113875519_0_0" index="0" allow="pedestrian delivery bicycle" speed="5.02" length="5.02" shape="960.41,5274.29 959.03,5274.36 958.02,5274.86 957.36,5275.78 957.07,5277.13"/>
    </edge>
    <edge id=":12113875519_1" function="internal">
        <lane id=":12113875519_1_0" index="0" allow="pedestrian delivery bicycle" speed="5.56" length="10.17" shape="960.41,5274.29 957.68,5273.65 955.79,5272.31 954.75,5270.27 954.54,5267.53"/>
    </edge>
    <edge id=":12113875519_2" function="internal">
        <lane id=":12113875519_2_0" index="0" allow="pedestrian delivery bicycle" speed="3.65" length="4.67" shape="960.41,5274.29 959.29,5273.38 958.96,5272.55 959.43,5271.79 960.70,5271.10"/>
    </edge>
    <edge id=":12113875519_3" function="internal">
        <lane id=":12113875519_3_0" index="0" allow="pedestrian delivery bicycle" speed="5.11" length="5.08" shape="957.74,5267.75 957.84,5269.11 958.37,5270.12 959.32,5270.78 960.70,5271.10"/>
    </edge>
    <edge id=":12113875519_4" function="internal">
        <lane id=":12113875519_4_0" index="0" allow="pedestrian delivery bicycle" speed="5.56" length="9.40" shape="957.74,5267.75 957.07,5277.13"/>
    </edge>
    <edge id=":12113875519_5" function="internal">
        <lane id=":12113875519_5_0" index="0" allow="pedestrian delivery bicycle" speed="3.65" length="4.67" shape="957.74,5267.75 956.85,5268.89 956.03,5269.23 955.26,5268.78 954.54,5267.53"/>
    </edge>
    <edge id=":12113875519_6" function="internal">
        <lane id=":12113875519_6_0" index="0" allow="pedestrian delivery bicycle" speed="5.56" length="9.40" shape="953.88,5276.91 954.54,5267.53"/>
    </edge>
    <edge id=":12113875519_7" function="internal">
        <lane id=":12113875519_7_0" index="0" allow="pedestrian delivery bicycle" speed="5.56" length="10.26" shape="953.88,5276.91 954.48,5274.15 955.81,5272.26 957.89,5271.25 960.70,5271.10"/>
    </edge>
    <edge id=":12113875519_8" function="internal">
        <lane id=":12113875519_8_0" index="0" allow="pedestrian delivery bicycle" speed="3.65" length="4.67" shape="953.88,5276.91 954.76,5275.76 955.59,5275.42 956.36,5275.88 957.07,5277.13"/>
    </edge>
    <edge id=":12113875521_0" function="internal">
        <lane id=":12113875521_0_0" index="0" allow="pedestrian delivery bicycle" speed="3.65" length="4.67" shape="969.09,5338.39 968.15,5339.49 967.31,5339.79 966.56,5339.29 965.92,5338.00"/>
    </edge>
    <edge id=":12113875530_0" function="internal">
        <lane id=":12113875530_0_0" index="0" allow="pedestrian delivery bicycle" speed="3.65" length="4.67" shape="919.55,5356.36 918.68,5357.51 917.86,5357.87 917.08,5357.42 916.35,5356.18"/>
    </edge>
    <edge id=":12113875532_0" function="internal">
        <lane id=":12113875532_0_0" index="0" allow="pedestrian delivery bicycle" speed="3.65" length="4.67" shape="934.38,5360.19 933.51,5361.34 932.69,5361.69 931.91,5361.25 931.19,5360.00"/>
    </edge>
    <edge id=":12113875535_0" function="internal">
        <lane id=":12113875535_0_0" index="0" allow="pedestrian delivery bicycle" speed="3.65" length="4.67" shape="951.13,5361.42 950.25,5362.56 949.42,5362.90 948.65,5362.44 947.94,5361.19"/>
    </edge>
    <edge id=":12189275049_0" function="internal">
        <lane id=":12189275049_0_0" index="0" disallow="tram rail_urban rail rail_electric rail_fast ship container cable_car subway aircraft wheelchair scooter drone" speed="3.65" length="4.67" shape="500.47,4969.51 501.89,4969.22 502.74,4969.50 503.02,4970.34 502.75,4971.76"/>
    </edge>
    <edge id=":12189275050_0" function="internal">
        <lane id=":12189275050_0_0" index="0" disallow="tram rail_urban rail rail_electric rail_fast ship container cable_car subway aircraft wheelchair scooter drone" speed="3.65" length="4.67" shape="528.63,4946.90 527.21,4947.14 526.37,4946.83 526.11,4945.97 526.44,4944.57"/>
    </edge>
    <edge id=":12441430629_0" function="internal">
        <lane id=":12441430629_0_0" index="0" disallow="tram rail_urban rail rail_electric rail_fast ship container cable_car subway aircraft wheelchair scooter drone" speed="8.33" length="5.04" shape="690.21,5051.70 685.78,5054.11"/>
        <lane id=":12441430629_0_1" index="1" disallow="tram rail_urban rail rail_electric rail_fast ship container cable_car subway aircraft wheelchair scooter drone" speed="8.33" length="5.04" shape="688.68,5048.89 684.25,5051.30"/>
        <lane id=":12441430629_0_2" index="2" disallow="tram rail_urban rail rail_electric rail_fast ship container cable_car subway aircraft wheelchair scooter drone" speed="8.33" length="5.04" shape="687.15,5046.08 682.72,5048.49"/>
    </edge>
    <edge id=":12451096776_0" function="internal">
        <lane id=":12451096776_0_0" index="0" disallow="tram rail_urban rail rail_electric rail_fast ship container cable_car subway aircraft wheelchair scooter drone" speed="13.89" length="13.65" shape="716.24,5063.67 722.57,5075.76"/>
        <lane id=":12451096776_0_1" index="1" disallow="tram rail_urban rail rail_electric rail_fast ship container cable_car subway aircraft wheelchair scooter drone" speed="13.89" length="13.65" shape="713.41,5065.15 719.73,5077.25"/>
    </edge>
    <edge id=":1659909338_0" function="internal">
        <lane id=":1659909338_0_0" index="0" allow="pedestrian delivery bicycle" speed="5.19" length="5.18" shape="786.79,4792.37 785.62,4791.70 784.47,4791.58 783.35,4792.00 782.24,4792.97"/>
    </edge>
    <edge id=":1659909338_1" function="internal">
        <lane id=":1659909338_1_0" index="0" allow="pedestrian delivery bicycle" speed="5.56" length="9.41" shape="786.79,4792.37 779.45,4786.49"/>
    </edge>
    <edge id=":1659909338_2" function="internal">
        <lane id=":1659909338_2_0" index="0" allow="pedestrian delivery bicycle" speed="3.65" length="4.67" shape="786.79,4792.37 786.36,4791.00 786.55,4790.12 787.36,4789.75 788.80,4789.88"/>
    </edge>
    <edge id=":1659909338_3" function="internal">
        <lane id=":1659909338_3_0" index="0" allow="pedestrian delivery bicycle" speed="5.56" length="9.41" shape="781.45,4784.00 788.80,4789.88"/>
    </edge>
    <edge id=":1659909338_4" function="internal">
        <lane id=":1659909338_4_0" index="0" allow="pedestrian delivery bicycle" speed="5.56" length="10.38" shape="781.45,4784.00 783.41,4786.08 784.19,4788.28 783.81,4790.57 782.24,4792.97"/>
    </edge>
    <edge id=":1659909338_5" function="internal">
        <lane id=":1659909338_5_0" index="0" allow="pedestrian delivery bicycle" speed="3.65" length="4.67" shape="781.45,4784.00 781.89,4785.37 781.70,4786.24 780.89,4786.62 779.45,4786.49"/>
    </edge>
    <edge id=":1659909338_6" function="internal">
        <lane id=":1659909338_6_0" index="0" allow="pedestrian delivery bicycle" speed="4.99" length="5.05" shape="779.84,4790.86 780.60,4789.69 780.79,4788.58 780.40,4787.51 779.45,4786.49"/>
    </edge>
    <edge id=":1659909338_7" function="internal">
        <lane id=":1659909338_7_0" index="0" allow="pedestrian delivery bicycle" speed="5.56" length="10.18" shape="779.84,4790.86 781.97,4789.00 784.18,4788.22 786.45,4788.51 788.80,4789.88"/>
    </edge>
    <edge id=":1659909338_8" function="internal">
        <lane id=":1659909338_8_0" index="0" allow="pedestrian delivery bicycle" speed="3.65" length="4.67" shape="779.84,4790.86 781.23,4790.49 782.10,4790.71 782.43,4791.54 782.24,4792.97"/>
    </edge>
    <edge id=":1659909339_0" function="internal">
        <lane id=":1659909339_0_0" index="0" allow="pedestrian delivery bicycle" speed="5.15" length="5.13" shape="799.09,4802.22 797.91,4801.54 796.77,4801.41 795.66,4801.83 794.59,4802.79"/>
    </edge>
    <edge id=":1659909339_1" function="internal">
        <lane id=":1659909339_1_0" index="0" allow="pedestrian delivery bicycle" speed="5.56" length="9.40" shape="799.09,4802.22 791.75,4796.34"/>
    </edge>
    <edge id=":1659909339_2" function="internal">
        <lane id=":1659909339_2_0" index="0" allow="pedestrian delivery bicycle" speed="3.65" length="4.67" shape="799.09,4802.22 798.65,4800.85 798.84,4799.97 799.65,4799.60 801.09,4799.72"/>
    </edge>
    <edge id=":1659909339_3" function="internal">
        <lane id=":1659909339_3_0" index="0" allow="pedestrian delivery bicycle" speed="5.56" length="9.40" shape="793.75,4793.84 801.09,4799.72"/>
    </edge>
    <edge id=":1659909339_4" function="internal">
        <lane id=":1659909339_4_0" index="0" allow="pedestrian delivery bicycle" speed="5.56" length="10.32" shape="793.75,4793.84 795.69,4795.92 796.48,4798.10 796.11,4800.39 794.59,4802.79"/>
    </edge>
    <edge id=":1659909339_5" function="internal">
        <lane id=":1659909339_5_0" index="0" allow="pedestrian delivery bicycle" speed="3.65" length="4.67" shape="793.75,4793.84 794.18,4795.22 794.00,4796.09 793.18,4796.47 791.75,4796.34"/>
    </edge>
    <edge id=":1659909339_6" function="internal">
        <lane id=":1659909339_6_0" index="0" allow="pedestrian delivery bicycle" speed="5.01" length="5.04" shape="792.16,4800.71 792.90,4799.54 793.08,4798.42 792.70,4797.35 791.75,4796.34"/>
    </edge>
    <edge id=":1659909339_7" function="internal">
        <lane id=":1659909339_7_0" index="0" allow="pedestrian delivery bicycle" speed="5.56" length="10.17" shape="792.16,4800.71 794.27,4798.84 796.46,4798.05 798.73,4798.34 801.09,4799.72"/>
    </edge>
    <edge id=":1659909339_8" function="internal">
        <lane id=":1659909339_8_0" index="0" allow="pedestrian delivery bicycle" speed="3.65" length="4.67" shape="792.16,4800.71 793.54,4800.32 794.41,4800.53 794.76,4801.36 794.59,4802.79"/>
    </edge>
    <edge id=":1659909340_0" function="internal">
        <lane id=":1659909340_0_0" index="0" allow="pedestrian delivery bicycle" speed="3.65" length="4.67" shape="737.47,4820.59 736.08,4820.97 735.21,4820.74 734.87,4819.91 735.06,4818.48"/>
    </edge>
    <edge id=":1659909343_0" function="internal">
        <lane id=":1659909343_0_0" index="0" allow="pedestrian delivery bicycle" speed="3.65" length="4.67" shape="749.44,4830.41 748.05,4830.79 747.18,4830.56 746.84,4829.74 747.03,4828.31"/>
    </edge>
    <edge id=":1659909345_0" function="internal">
        <lane id=":1659909345_0_0" index="0" allow="pedestrian delivery bicycle" speed="3.65" length="4.67" shape="761.88,4840.97 760.49,4841.36 759.62,4841.14 759.27,4840.32 759.44,4838.89"/>
    </edge>
    <edge id=":1659909355_0" function="internal">
        <lane id=":1659909355_0_0" index="0" disallow="tram rail_urban rail rail_electric rail_fast ship container cable_car subway aircraft wheelchair scooter drone" speed="8.33" length="7.47" shape="765.26,4949.24 772.77,4948.32"/>
        <lane id=":1659909355_0_1" index="1" disallow="tram rail_urban rail rail_electric rail_fast ship container cable_car subway aircraft wheelchair scooter drone" speed="8.33" length="7.47" shape="765.75,4952.40 773.07,4951.50"/>
    </edge>
    <edge id=":1659909368_0" function="internal">
        <lane id=":1659909368_0_0" index="0" disallow="tram rail_urban rail rail_electric rail_fast ship container cable_car subway aircraft wheelchair scooter drone" speed="13.89" length="6.98" shape="838.01,4990.45 843.31,4995.98"/>
        <lane id=":1659909368_0_1" index="1" disallow="tram rail_urban rail rail_electric rail_fast ship container cable_car subway aircraft wheelchair scooter drone" speed="13.89" length="6.98" shape="836.17,4993.16 841.00,4998.19"/>
        <lane id=":1659909368_0_2" index="2" disallow="tram rail_urban rail rail_electric rail_fast ship container cable_car subway aircraft wheelchair scooter drone" speed="13.89" length="6.98" shape="834.33,4995.86 838.70,5000.41"/>
    </edge>
    <edge id=":1659909368_3" function="internal">
        <lane id=":1659909368_3_0" index="0" disallow="tram rail_urban rail rail_electric rail_fast ship container cable_car subway aircraft wheelchair scooter drone" speed="9.72" length="7.17" shape="835.70,4993.84 837.41,4994.97 838.54,4995.80 839.58,4996.74 841.00,4998.19"/>
        <lane id=":1659909368_3_1" index="1" disallow="tram rail_urban rail rail_electric rail_fast ship container cable_car subway aircraft wheelchair scooter drone" speed="9.72" length="7.17" shape="835.70,4993.84 837.09,4995.34 837.39,4996.90 837.60,4998.56 838.70,5000.41"/>
    </edge>
    <edge id=":1661654958_0" function="internal">
        <lane id=":1661654958_0_0" index="0" disallow="tram rail_urban rail rail_electric rail_fast ship container cable_car subway aircraft wheelchair scooter drone" speed="3.65" length="4.67" shape="485.82,4626.28 485.84,4624.84 486.29,4624.07 487.18,4623.97 488.51,4624.55"/>
    </edge>
    <edge id=":1661655042_0" function="internal">
        <lane id=":1661655042_0_0" index="0" disallow="tram rail_urban rail rail_electric rail_fast ship container cable_car subway aircraft wheelchair scooter drone" speed="11.11" length="8.82" shape="565.62,4726.41 564.28,4724.28 564.02,4722.41 563.76,4720.53 562.44,4718.39"/>
    </edge>
    <edge id=":1661655042_1" function="internal">
        <lane id=":1661655042_1_0" index="0" disallow="tram rail_urban rail rail_electric rail_fast ship container cable_car subway aircraft wheelchair scooter drone" speed="11.11" length="7.98" shape="564.77,4716.20 570.25,4722.00"/>
    </edge>
    <edge id=":1786625821_0" function="internal">
        <lane id=":1786625821_0_0" index="0" disallow="tram rail_urban rail rail_electric rail_fast ship container cable_car subway aircraft wheelchair scooter drone" speed="3.65" length="4.67" shape="625.51,5274.01 626.55,5273.01 627.42,5272.79 628.12,5273.36 628.64,5274.70"/>
    </edge>
    <edge id=":2126598210_0" function="internal">
        <lane id=":2126598210_0_0" index="0" disallow="tram rail_urban rail rail_electric rail_fast ship container cable_car subway aircraft wheelchair scooter drone" speed="12.50" length="0.39" shape="373.95,4752.49 373.75,4752.01"/>
        <lane id=":2126598210_0_1" index="1" disallow="tram rail_urban rail rail_electric rail_fast ship container cable_car subway aircraft wheelchair scooter drone" speed="12.50" length="0.39" shape="376.87,4751.19 376.72,4750.83"/>
        <lane id=":2126598210_0_2" index="2" disallow="tram rail_urban rail rail_electric rail_fast ship container cable_car subway aircraft wheelchair scooter drone" speed="12.50" length="0.39" shape="379.80,4749.89 379.69,4749.64"/>
    </edge>
    <edge id=":2233227440_0" function="internal">
        <lane id=":2233227440_0_0" index="0" disallow="tram rail_urban rail rail_electric rail_fast ship container cable_car subway aircraft wheelchair scooter drone" speed="13.89" length="7.72" shape="918.01,4838.04 923.27,4843.76"/>
        <lane id=":2233227440_0_1" index="1" disallow="tram rail_urban rail rail_electric rail_fast ship container cable_car subway aircraft wheelchair scooter drone" speed="13.89" length="7.72" shape="915.65,4840.20 920.84,4845.85"/>
    </edge>
    <edge id=":2233227440_2" function="internal">
        <lane id=":2233227440_2_0" index="0" disallow="tram rail_urban rail rail_electric rail_fast ship container cable_car subway aircraft wheelchair scooter drone" speed="8.88" length="7.59" shape="913.66,4843.93 916.24,4844.12 918.30,4844.51 919.84,4845.09 920.84,4845.85"/>
    </edge>
    <edge id=":2233227456_0" function="internal">
        <lane id=":2233227456_0_0" index="0" disallow="tram rail_urban rail rail_electric rail_fast ship container cable_car subway aircraft wheelchair scooter drone" speed="13.89" length="8.12" shape="985.16,4946.69 984.60,4944.43 984.91,4942.69 985.16,4940.97 984.43,4938.80"/>
    </edge>
    <edge id=":2233227456_1" function="internal">
        <lane id=":2233227456_1_0" index="0" disallow="tram rail_urban rail rail_electric rail_fast ship container cable_car subway aircraft wheelchair scooter drone" speed="13.89" length="9.04" shape="987.19,4937.17 988.78,4939.47 990.12,4940.87 991.52,4942.23 993.26,4944.44"/>
        <lane id=":2233227456_1_1" index="1" disallow="tram rail_urban rail rail_electric rail_fast ship container cable_car subway aircraft wheelchair scooter drone" speed="13.89" length="9.04" shape="987.19,4937.17 988.39,4939.39 989.02,4941.02 989.45,4942.73 990.09,4945.20"/>
    </edge>
    <edge id=":2233227538_0" function="internal">
        <lane id=":2233227538_0_0" index="0" disallow="tram rail_urban rail rail_electric rail_fast ship container cable_car subway aircraft wheelchair scooter drone" speed="9.72" length="16.42" shape="879.48,4881.32 876.20,4882.69 872.93,4884.05 869.40,4886.07 865.31,4889.37"/>
    </edge>
    <edge id=":2233227538_1" function="internal">
        <lane id=":2233227538_1_0" index="0" disallow="tram rail_urban rail rail_electric rail_fast ship container cable_car subway aircraft wheelchair scooter drone" speed="11.11" length="16.42" shape="876.84,4877.58 865.31,4889.37"/>
        <lane id=":2233227538_1_1" index="1" disallow="tram rail_urban rail rail_electric rail_fast ship container cable_car subway aircraft wheelchair scooter drone" speed="11.11" length="16.42" shape="874.56,4875.34 863.13,4887.03"/>
    </edge>
    <edge id=":2233227539_0" function="internal">
        <lane id=":2233227539_0_0" index="0" disallow="tram rail_urban rail rail_electric rail_fast ship container cable_car subway aircraft wheelchair scooter drone" speed="14.31" length="1.18" shape="988.83,4974.99 988.86,4974.64 988.83,4974.40 988.77,4974.17 988.71,4973.82"/>
        <lane id=":2233227539_0_1" index="1" disallow="tram rail_urban rail rail_electric rail_fast ship container cable_car subway aircraft wheelchair scooter drone" speed="15.28" length="2.11" shape="991.99,4975.48 992.06,4974.87 992.05,4974.44 991.98,4974.01 991.88,4973.39"/>
    </edge>
    <edge id=":2233227539_2" function="internal">