<?xml version="1.0" encoding="UTF-8"?>

<!-- generated on 2025-03-26 01:37:46 by Eclipse SUMO duarouter Version 1.22.0
<duarouterConfiguration xmlns:xsi="http://www.w3.org/2001/XMLSchema-instance" xsi:noNamespaceSchemaLocation="http://sumo.dlr.de/xsd/duarouterConfiguration.xsd">

    <input>
        <net-file value="C:\Users\FADEL\Documents\GitHub\TrafficSimulation\public\2025-03-26-01-37-40\osm.net.xml"/>
        <route-files value="C:\Users\FADEL\Documents\GitHub\TrafficSimulation\public\2025-03-26-01-37-40\osm.passenger.trips.xml"/>
    </input>

    <output>
        <output-file value="routes.rou.xml"/>
    </output>

    <time>
        <begin value="0"/>
        <end value="3600"/>
    </time>

    <report>
        <no-warnings value="true"/>
        <ignore-errors value="true"/>
        <no-step-log value="true"/>
    </report>

</duarouterConfiguration>
-->

<routes xmlns:xsi="http://www.w3.org/2001/XMLSchema-instance" xsi:noNamespaceSchemaLocation="http://sumo.dlr.de/xsd/routes_file.xsd">
    <vType id="veh_passenger" vClass="passenger"/>
    <vehicle id="veh0" type="veh_passenger" depart="0.00" departLane="best">
        <route edges="28016312 156364556#1 202157002#0 202157002#1 202157002#2 24913519#1 1144362247 541763975 4067932 339201219 -23121445#5 -23121445#4 -23121445#3 -23121445#2 -23121445#1 -23121445#0 -1335908655 -339201177#5 -339201177#4 -339201177#3 -339201177#2 -339201177#1 -339201177#0 -15971189 -1101961737 -1101961735#1 -1101961735#0 -168937986 -1101961674#3 -1101961674#2 -1101961674#1"/>
    </vehicle>
    <vehicle id="veh1" type="veh_passenger" depart="37.86" departLane="best">
        <route edges="1101961674#1 1101961674#2 1101961674#3 168937986 1101961735#0 1101961735#1 1101961737 15971189 339201177#0 339201177#1 339201177#2 339201177#3 339201177#4 339201177#5 1335908655 23121445#0 23121445#1 23121445#2 23121445#3 23121445#4 23121445#5 831694400#0 831694400#1 23013165 4611698 202156994#0 4773465#2 1127592486#1 490365295#0 -156364570#4 -156364570#2 -387892378"/>
    </vehicle>
    <vehicle id="veh3" type="veh_passenger" depart="113.59" departLane="best">
        <route edges="171826985#2 24913519#1 1144362247 541763975 4067932 339201219 -23121445#5 -23121445#4 -23121445#3 -23121445#2 -23121445#1 -23121445#0 -1335908655 -339201177#5 -339201177#4 -339201177#3 -339201177#2 -339201177#1 -339201177#0 -15971189 -1101961737 -1101961735#1 -1101961735#0 -168937986 -1101961674#3 -1101961674#2"/>
    </vehicle>
    <vehicle id="veh4" type="veh_passenger" depart="151.45" departLane="best">
        <route edges="1144362247 541763975 4067932 339201219 831694400#0 831694400#1 23013165 4611698 202156994#0 4773465#2 1127592486#1 490365295#0 -1123150361#1 -1173516145#1 -1173516145#0 -23809670#0"/>
    </vehicle>
    <vehicle id="veh5" type="veh_passenger" depart="189.31" departLane="best" departSpeed="max">
        <route edges="61583424#0 534588621#0 534588621#3 284493291#0 4773465#2 1127592486#1"/>
    </vehicle>
    <vehicle id="veh6" type="veh_passenger" depart="227.17" departLane="best">
        <route edges="534588621#0 534588621#3 284493291#0 24913519#1 1144362247 541763975 4067932 339201219 -23121445#5 -23121445#4 -23121445#3 -23121445#2 -23121445#1 -23121445#0 -1335908655 1335908655 23121445#0 23121445#1 23121445#2 23121445#3 23121445#4"/>
    </vehicle>
    <vehicle id="veh7" type="veh_passenger" depart="265.04" departLane="best">
        <route edges="23121445#4 23121445#5 831694400#0 831694400#1 23013165 4611698 202156994#0 72157174#1"/>
    </vehicle>
    <vehicle id="veh9" type="veh_passenger" depart="340.76" departLane="best" departSpeed="max">
        <route edges="340498976#0 340498976#2 340498976#3 340498976#4 340498976#6 340498976#7 340498976#9 1119837993 1119837507#0 1119837507#1 -4610480#1 -1101961737"/>
    </vehicle>
    <vehicle id="veh10" type="veh_passenger" depart="378.62" departLane="best">
        <route edges="-4610480#1 15971189 339201177#0 339201177#1 339201177#2 339201177#3 339201177#4 339201177#5 1335908655 23121445#0 23121445#1 23121445#2 23121445#3 23121445#4 23121445#5 831694400#0 831694400#1 23013165 4611698 202156994#0 4773465#2 1127592486#1 490365295#0 -156364570#4 -156364570#2 25294728#0 25294728#1 1102369938 1102369940#1"/>
    </vehicle>
    <vehicle id="veh11" type="veh_passenger" depart="416.49" departLane="best">
        <route edges="-156364570#2 156364570#2 156364570#3 156364556#1 202157002#0 202157002#1 202157002#2 606078072#1 -534588621#3 -534588621#2"/>
    </vehicle>
    <vehicle id="veh14" type="veh_passenger" depart="530.07" departLane="best" departSpeed="max">
        <route edges="1101961674#0 1101961674#1 1101961674#2 1101961674#3 168937986 1101961735#0 1101961735#1 1101961737 15971189 339201177#0 339201177#1 339201177#2 339201177#3 339201177#4 339201177#5 1335908655 23121445#0 23121445#1 23121445#2 23121445#3 23121445#4 23121445#5 831694400#0 831694400#1 23013165 4611698 202156994#0 606078072#1 -534588621#3 -534588621#2 606078071#0"/>
    </vehicle>
    <vehicle id="veh15" type="veh_passenger" depart="567.94" departLane="best">
        <route edges="284493291#0 24913519#1 1144362247 541763975 4067932 339201219 -23121445#5 -23121445#4 -23121445#3 -23121445#2 -23121445#1 -23121445#0 -1335908655 1335908655 23121445#0 23121445#1 23121445#2 23121445#3 23121445#4 23121445#5"/>
    </vehicle>
    <vehicle id="veh17" type="veh_passenger" depart="643.66" departLane="best">
        <route edges="-23121445#4 -23121445#3 -23121445#2 -23121445#1 -23121445#0 -1335908655 1335908655 23121445#0 23121445#1 23121445#2 23121445#3 23121445#4 23121445#5 831694400#0 831694400#1 23013165 4611698 202156994#0 4773465#2 1127592486#1 490365295#0 156364556#1"/>
    </vehicle>
    <vehicle id="veh18" type="veh_passenger" depart="681.52" departLane="best">
        <route edges="831694400#0 831694400#1 23013165 4611698 202156994#0 4773465#2 1127592486#1 490365295#0 -156364570#4 -156364570#2 25294729#1"/>
    </vehicle>
    <vehicle id="veh19" type="veh_passenger" depart="719.39" departLane="best">
        <route edges="24913519#1 1144362247 541763975 4067932 339201219 -23121445#5 -23121445#4 -23121445#3 -23121445#2 -23121445#1 -23121445#0 -1335908655 -339201177#5 -339201177#4 -339201177#3 -339201177#2 -339201177#1 -339201177#0 -15971189 15971189 339201177#0"/>
    </vehicle>
    <vehicle id="veh20" type="veh_passenger" depart="757.25" departLane="best">
        <route edges="490365295#0 156364556#1 202157002#0 202157002#1 202157002#2 24913519#1 1144362247 541763975 4067932 339201219 -23121445#5 -23121445#4 -23121445#3 -23121445#2 -23121445#1 -23121445#0 -1335908655 -339201177#5 -339201177#4 -339201177#3 -339201177#2 -339201177#1 -339201177#0 -15971189 4610480#1 35578557#2 22972219#0 4610476#2 4610476#4 4610476#5"/>
    </vehicle>
    <vehicle id="veh21" type="veh_passenger" depart="795.11" departLane="best">
        <route edges="-339201177#2 -339201177#1 -339201177#0 -15971189 15971189 339201177#0 339201177#1 339201177#2 339201177#3 339201177#4 339201177#5 1335908655 23121445#0 23121445#1 23121445#2 23121445#3 23121445#4 23121445#5 831694400#0 831694400#1 23013165 4611698 202156994#0 606078072#1 -534588621#3 -534588621#2 606078071#0"/>
    </vehicle>
    <vehicle id="veh23" type="veh_passenger" depart="870.84" departLane="best">
        <route edges="284493291#0 24913519#1 1144362247 541763975 4067932 339201219 -23121445#5 -23121445#4 -23121445#3 -23121445#2 -23121445#1 -23121445#0 -1335908655 -339201177#5 -339201177#4 -339201177#3 -339201177#2 -339201177#1 -339201177#0 -15971189 -1101961737 -1101961735#1 -1101961735#0 -168937986 -1101961674#3 -1101961674#2 -1101961674#1 -1101961674#0 1101961674#0 1101961674#1 1101961674#2 1101961674#3 168937986"/>
    </vehicle>
    <vehicle id="veh24" type="veh_passenger" depart="908.70" departLane="best">
        <route edges="541763975 4067932 339201219 831694400#0 831694400#1 23013165 4611698 202156994#0 72157174#1 171826984#2"/>
    </vehicle>
    <vehicle id="veh25" type="veh_passenger" depart="946.56" departLane="best" departSpeed="max">
        <route edges="1101961674#0 1101961674#1 1101961674#2 1101961674#3 168937986 1101961735#0 1101961735#1 1101961737 15971189 339201177#0 339201177#1 339201177#2 339201177#3 339201177#4 339201177#5 1335908655 23121445#0 23121445#1 23121445#2 23121445#3 23121445#4 23121445#5 831694400#0 831694400#1 23013165 4611698 202156994#0 606078072#1 -534588621#3"/>
    </vehicle>
    <vehicle id="veh26" type="veh_passenger" depart="984.42" departLane="best">
        <route edges="24913519#1 1144362247 541763975 4067932 339201219 -23121445#5 -23121445#4 -23121445#3 -23121445#2 -23121445#1 -23121445#0 -1335908655 -339201177#5 -339201177#4 -339201177#3 -339201177#2 -339201177#1 -339201177#0 -15971189 -1101961737 -1101961735#1 -1101961735#0 -168937986 -1101961674#3 -1101961674#2 -1101961674#1 -1101961674#0 1101961674#0 1101961674#1 1101961674#2 1101961674#3"/>
    </vehicle>
    <vehicle id="veh27" type="veh_passenger" depart="1022.29" departLane="best" departSpeed="max">
        <route edges="24914992 171826985#2 24913519#1 1144362247 541763975 4067932 339201219 541763974"/>
    </vehicle>
    <vehicle id="veh30" type="veh_passenger" depart="1135.87" departLane="best">
        <route edges="339201177#4 339201177#5 1335908655 23121445#0 23121445#1 23121445#2 23121445#3 23121445#4 23121445#5 831694400#0 831694400#1 23013165 4611698 202156994#0"/>
    </vehicle>
    <vehicle id="veh31" type="veh_passenger" depart="1173.74" departLane="best" departSpeed="max">
        <route edges="1101961674#0 1101961674#1 1101961674#2 1101961674#3 168937986 1101961735#0 1101961735#1 1101961737 15971189 339201177#0 339201177#1 339201177#2 339201177#3 339201177#4 339201177#5 1335908655 23121445#0 23121445#1 23121445#2 23121445#3 23121445#4 23121445#5 831694400#0 831694400#1 23013165 4611698 202156994#0 4773465#2 1127592486#1 490365295#0 -156364570#4 -156364570#2 25294729#1"/>
    </vehicle>
    <vehicle id="veh34" type="veh_passenger" depart="1287.32" departLane="best">
        <route edges="202157002#2 24913519#1 1144362247 541763975 4067932 339201219 -23121445#5 -23121445#4 -23121445#3 -23121445#2 -23121445#1 -23121445#0 -1335908655 -339201177#5 -339201177#4 -339201177#3 -339201177#2 -339201177#1 -339201177#0"/>
    </vehicle>
    <vehicle id="veh35" type="veh_passenger" depart="1325.19" departLane="best">
        <route edges="1101961737 15971189 339201177#0 339201177#1 339201177#2 339201177#3 339201177#4 339201177#5 1335908655 23121445#0 23121445#1 23121445#2 23121445#3 23121445#4 23121445#5 831694400#0 831694400#1 23013165 4611698 202156994#0 4773465#2 1127592486#1 490365295#0 -156364570#4 -156364570#2 25294729#1"/>
    </vehicle>
    <vehicle id="veh36" type="veh_passenger" depart="1363.05" departLane="best" departSpeed="max">
        <route edges="24914992 171826985#2 4773465#2 1127592486#1 490365295#0 -1123150361#1 -1173516145#1 -1173516145#0 -23809670#0"/>
    </vehicle>
    <vehicle id="veh37" type="veh_passenger" depart="1400.91" departLane="best">
        <route edges="-1101961735#1 -1101961735#0 -168937986 -1101961674#3 -1101961674#2 -1101961674#1 -1101961674#0 1101961674#0 1101961674#1 1101961674#2 1101961674#3 168937986 1101961735#0 1101961735#1 1101961737 15971189 339201177#0 339201177#1 339201177#2 339201177#3 339201177#4 339201177#5 1335908655 23121445#0 23121445#1 23121445#2 23121445#3 23121445#4 23121445#5 831694400#0 831694400#1 23013165 4611698 202156994#0 606078072#1 -534588621#3 -534588621#2 606078071#0"/>
    </vehicle>
    <vehicle id="veh38" type="veh_passenger" depart="1438.77" departLane="best" departSpeed="max">
        <route edges="54048862#0 831694400#0 831694400#1 23013165 4611698 202156994#0 4773465#2"/>
    </vehicle>
    <vehicle id="veh39" type="veh_passenger" depart="1476.64" departLane="best" departSpeed="max">
        <route edges="54048862#0 831694400#0 831694400#1 23013165 4611698 202156994#0 606078072#1 -534588621#3 -534588621#2 606078071#0"/>
    </vehicle>
    <vehicle id="veh40" type="veh_passenger" depart="1514.50" departLane="best" departSpeed="max">
        <route edges="387892378 156364570#2 156364570#3 156364556#1 202157002#0 202157002#1 202157002#2 24913519#1 1144362247 541763975 4067932 339201219 -23121445#5 -23121445#4 -23121445#3 -23121445#2 -23121445#1"/>
    </vehicle>
    <vehicle id="veh41" type="veh_passenger" depart="1552.36" departLane="best" departSpeed="max">
        <route edges="1101961674#0 1101961674#1 1101961674#2 1101961674#3 168937986 1101961735#0 1101961735#1 1101961737 15971189 339201177#0 339201177#1 339201177#2 339201177#3 339201177#4 339201177#5 1335908655 23121445#0 23121445#1 23121445#2 23121445#3 23121445#4 23121445#5 541763974"/>
    </vehicle>
    <vehicle id="veh43" type="veh_passenger" depart="1628.08" departLane="best">
        <route edges="831694400#1 23013165 4611698 202156994#0 4773465#2 1127592486#1 490365295#0 -156364570#4 -156364570#2 25294729#1"/>
    </vehicle>
    <vehicle id="veh45" type="veh_passenger" depart="1703.81" departLane="best" departSpeed="max">
        <route edges="-202156991 -1102369942 1335908655 23121445#0 23121445#1 23121445#2 23121445#3 23121445#4 23121445#5 831694400#0 831694400#1 23013165 4611698 202156994#0 4773465#2 1127592486#1 490365295#0 -156364570#4 -156364570#2 -387892378"/>
    </vehicle>
    <vehicle id="veh46" type="veh_passenger" depart="1741.67" departLane="best">
        <route edges="1127592486#1 490365295#0 156364556#1 202157002#0 202157002#1 202157002#2 24913519#1 1144362247 541763975 4067932 339201219 -23121445#5 -23121445#4 -23121445#3 -23121445#2 -23121445#1 -23121445#0 -1335908655 1335908655 23121445#0"/>
    </vehicle>
    <vehicle id="veh47" type="veh_passenger" depart="1779.53" departLane="best">
        <route edges="-4610480#1 15971189 339201177#0 339201177#1 339201177#2 339201177#3 339201177#4 339201177#5 1335908655 23121445#0 23121445#1 23121445#2 23121445#3 23121445#4 23121445#5 831694400#0 831694400#1 23013165 4611698 202156994#0 4773465#2 1127592486#1 490365295#0 -156364570#4 -156364570#2 -387892378"/>
    </vehicle>
    <vehicle id="veh48" type="veh_passenger" depart="1817.40" departLane="best">
        <route edges="-4610480#1 15971189 339201177#0 339201177#1 339201177#2 339201177#3 339201177#4 339201177#5 1335908655 23121445#0 23121445#1 23121445#2 23121445#3 23121445#4 23121445#5 541763974"/>
    </vehicle>
    <vehicle id="veh49" type="veh_passenger" depart="1855.26" departLane="best">
        <route edges="534588621#3 284493291#0 4773465#2 1127592486#1 490365295#0 -1123150361#1 -1173516145#1"/>
    </vehicle>
    <vehicle id="veh50" type="veh_passenger" depart="1893.12" departLane="best">
        <route edges="202156994#0 24913519#1 1144362247 541763975 4067932 339201219 -23121445#5 -23121445#4 -23121445#3 -23121445#2 -23121445#1 -23121445#0 -1335908655 -339201177#5 -339201177#4 -339201177#3 -339201177#2 -339201177#1 -339201177#0 -15971189 4610480#1 35578557#2 22972219#0 4610476#2 4610476#4 4610476#5"/>
    </vehicle>
    <vehicle id="veh53" type="veh_passenger" depart="2006.71" departLane="best">
        <route edges="831694400#0 831694400#1 23013165 4611698 202156994#0 24913519#1 1144362247 541763975 4067932 339201219 -23121445#5 -23121445#4 -23121445#3 -23121445#2 -23121445#1 -23121445#0 -1335908655 -339201177#5 -339201177#4 -339201177#3 -339201177#2 -339201177#1 -339201177#0 -15971189 4610480#1 35578557#2 22972219#0 35578559 195397541#0 195397541#2 195397541#3 195397541#4 195397541#5 -195397541#5 -195397541#4 -195397541#3 -195397541#2 -195397541#0"/>
    </vehicle>
    <vehicle id="veh54" type="veh_passenger" depart="2044.57" departLane="best" departSpeed="max">
        <route edges="54048862#0 831694400#0 831694400#1 23013165 4611698 202156994#0 606078072#1 -534588621#3"/>
    </vehicle>
    <vehicle id="veh56" type="veh_passenger" depart="2120.30" departLane="best">
        <route edges="831694400#1 23013165 4611698 202156994#0 4773465#2 1127592486#1 490365295#0"/>
    </vehicle>
    <vehicle id="veh57" type="veh_passenger" depart="2158.16" departLane="best">
        <route edges="534588621#0 534588621#3 284493291#0 4773465#2 1127592486#1 490365295#0 -1123150361#1 -1173516145#1 -1173516145#0 -23809670#0"/>
    </vehicle>
    <vehicle id="veh59" type="veh_passenger" depart="2233.88" departLane="best" departSpeed="max">
        <route edges="1101961674#0 1101961674#1 1101961674#2 1101961674#3 168937986 1101961735#0 1101961735#1 1101961737 4610480#1 35578557#2 22972219#0 4610476#2 4610476#4 4610476#5"/>
    </vehicle>
    <vehicle id="veh61" type="veh_passenger" depart="2309.61" departLane="best" departSpeed="max">
        <route edges="61583424#0 534588621#0 534588621#3 284493291#0 24913519#1 1144362247 541763975 4067932 339201219 831694400#0 831694400#1"/>
    </vehicle>
    <vehicle id="veh62" type="veh_passenger" depart="2347.47" departLane="best">
        <route edges="24913519#1 1144362247 541763975 4067932 339201219"/>
    </vehicle>
    <vehicle id="veh63" type="veh_passenger" depart="2385.33" departLane="best">
        <route edges="-23121445#2 -23121445#1 -23121445#0 -1335908655 1335908655 23121445#0 23121445#1 23121445#2 23121445#3 23121445#4 23121445#5 831694400#0 831694400#1 23013165 4611698 202156994#0 4773465#2 1127592486#1 490365295#0 -156364570#4 -156364570#2 25294728#0 25294728#1 1102369938 1102369940#1"/>
    </vehicle>
    <vehicle id="veh64" type="veh_passenger" depart="2423.20" departLane="best" departSpeed="max">
        <route edges="61583424#0 534588621#0 534588621#3 284493291#0 24913519#1 1144362247 541763975 4067932 339201219 831694400#0 831694400#1 23013165"/>
    </vehicle>
    <vehicle id="veh65" type="veh_passenger" depart="2461.06" departLane="best">
        <route edges="23121445#5 -23121445#5 -23121445#4 -23121445#3 -23121445#2 -23121445#1 -23121445#0 -1335908655 -339201177#5 -339201177#4 -339201177#3 -339201177#2 -339201177#1 -339201177#0 -15971189 4610480#1 35578557#2"/>
    </vehicle>
    <vehicle id="veh66" type="veh_passenger" depart="2498.92" departLane="best">
        <route edges="-23121445#3 -23121445#2 -23121445#1 -23121445#0 -1335908655 1335908655 23121445#0 23121445#1 23121445#2 23121445#3 23121445#4 23121445#5 831694400#0 831694400#1 23013165 4611698 202156994#0 606078072#1"/>
    </vehicle>
    <vehicle id="veh67" type="veh_passenger" depart="2536.78" departLane="best">
        <route edges="-156364570#2 156364570#2 156364570#3 156364556#1 202157002#0 202157002#1 202157002#2 24913519#1 1144362247 541763975 4067932 339201219 -23121445#5 -23121445#4 -23121445#3 -23121445#2 -23121445#1 -23121445#0 -1335908655 -339201177#5 -339201177#4 -339201177#3 -339201177#2 -339201177#1"/>
    </vehicle>
    <vehicle id="veh70" type="veh_passenger" depart="2650.37" departLane="best" departSpeed="max">
        <route edges="54048862#0 831694400#0 831694400#1 23013165 4611698 202156994#0 606078072#1 -534588621#3"/>
    </vehicle>
    <vehicle id="veh71" type="veh_passenger" depart="2688.23" departLane="best" departSpeed="max">
        <route edges="24914992 171826985#2 24913519#1"/>
    </vehicle>
    <vehicle id="veh72" type="veh_passenger" depart="2726.10" departLane="best">
        <route edges="168937986 1101961735#0 1101961735#1 1101961737 15971189 339201177#0 339201177#1 339201177#2 339201177#3 339201177#4 339201177#5 1335908655 23121445#0 23121445#1 23121445#2 23121445#3 23121445#4 23121445#5 831694400#0 831694400#1 23013165"/>
    </vehicle>
    <vehicle id="veh73" type="veh_passenger" depart="2763.96" departLane="best">
        <route edges="23121445#1 23121445#2 23121445#3 23121445#4 23121445#5 831694400#0 831694400#1 23013165 4611698 202156994#0 606078072#1 -534588621#3 -534588621#2 606078071#0"/>
    </vehicle>
    <vehicle id="veh75" type="veh_passenger" depart="2839.68" departLane="best">
        <route edges="339201177#2 339201177#3 339201177#4 339201177#5 1335908655 23121445#0 23121445#1 23121445#2 23121445#3 23121445#4 23121445#5 831694400#0 831694400#1 23013165 4611698 202156994#0 4773465#2 1127592486#1 490365295#0 -156364570#4 -156364570#2 25294728#0 25294728#1 1102369938 1102369940#1"/>
    </vehicle>
    <vehicle id="veh76" type="veh_passenger" depart="2877.55" departLane="best">
        <route edges="-1335908655 1335908655 23121445#0 23121445#1 23121445#2 23121445#3 23121445#4 23121445#5 831694400#0 831694400#1 23013165 4611698 202156994#0 72157174#1 171826984#2"/>
    </vehicle>
    <vehicle id="veh77" type="veh_passenger" depart="2915.41" departLane="best">
        <route edges="-1335908655 1335908655 23121445#0 23121445#1 23121445#2 23121445#3 23121445#4 23121445#5 831694400#0 831694400#1 23013165 4611698 202156994#0 4773465#2 1127592486#1 490365295#0 -156364570#4 -156364570#2 -387892378"/>
    </vehicle>
    <vehicle id="veh78" type="veh_passenger" depart="2953.27" departLane="best" departSpeed="max">
        <route edges="1101961674#0 1101961674#1 1101961674#2 1101961674#3 168937986 1101961735#0 1101961735#1 1101961737 15971189 339201177#0 339201177#1 339201177#2 339201177#3 339201177#4 339201177#5 1335908655 23121445#0 23121445#1 23121445#2 23121445#3 23121445#4 23121445#5 831694400#0 831694400#1 23013165 4611698 202156994#0 606078072#1 -534588621#3 -534588621#2 606078071#0"/>
    </vehicle>
    <vehicle id="veh79" type="veh_passenger" depart="2991.13" departLane="best">
        <route edges="4773465#2 1127592486#1 490365295#0 156364556#1 202157002#0 202157002#1 202157002#2 24913519#1 1144362247 541763975 4067932 339201219 -23121445#5 -23121445#4 -23121445#3 -23121445#2 -23121445#1 -23121445#0 -1335908655 -339201177#5 -339201177#4 -339201177#3 -339201177#2 -339201177#1 -339201177#0 -15971189 15971189 339201177#0 339201177#1 339201177#2 339201177#3 339201177#4"/>
    </vehicle>
    <vehicle id="veh80" type="veh_passenger" depart="3029.00" departLane="best" departSpeed="max">
        <route edges="24914992 171826985#2 24913519#1 1144362247 541763975 4067932 339201219 831694400#0"/>
    </vehicle>
    <vehicle id="veh81" type="veh_passenger" depart="3066.86" departLane="best">
        <route edges="284493291#0 24913519#1 1144362247 541763975 4067932 339201219 -23121445#5 -23121445#4 -23121445#3 -23121445#2 -23121445#1 -23121445#0 -1335908655 -339201177#5 -339201177#4 -339201177#3 -339201177#2 -339201177#1 -339201177#0 -15971189 -1101961737 -1101961735#1 -1101961735#0 -168937986 -1101961674#3 -1101961674#2 -1101961674#1 -1101961674#0"/>
    </vehicle>
    <vehicle id="veh82" type="veh_passenger" depart="3104.72" departLane="best">
        <route edges="4611698 202156994#0 4773465#2 1127592486#1 490365295#0 -156364570#4 -156364570#2 25294728#0 25294728#1 1102369938 1102369940#1"/>
    </vehicle>
    <vehicle id="veh83" type="veh_passenger" depart="3142.58" departLane="best">
        <route edges="339201177#0 339201177#1 339201177#2 339201177#3 339201177#4 339201177#5 1335908655 23121445#0 23121445#1 23121445#2 23121445#3 23121445#4 23121445#5 831694400#0 831694400#1 23013165 4611698 202156994#0 606078072#1 -534588621#3 -534588621#2 606078071#0"/>
    </vehicle>
    <vehicle id="veh84" type="veh_passenger" depart="3180.44" departLane="best" departSpeed="max">
        <route edges="-202156991 -1102369942 -339201177#5 -339201177#4 -339201177#3 -339201177#2 -339201177#1 -339201177#0 -15971189 4610480#1 35578557#2 22972219#0 35578559 195397541#0 195397541#2 195397541#3 195397541#4 195397541#5 -195397541#5 -195397541#4"/>
    </vehicle>
    <vehicle id="veh86" type="veh_passenger" depart="3256.17" departLane="best">
        <route edges="1101961674#1 1101961674#2 1101961674#3 168937986 1101961735#0 1101961735#1 1101961737 15971189 339201177#0 339201177#1 339201177#2 339201177#3 339201177#4 339201177#5 1335908655 23121445#0 23121445#1 23121445#2 23121445#3 23121445#4"/>
    </vehicle>
    <vehicle id="veh87" type="veh_passenger" depart="3294.03" departLane="best" departSpeed="max">
        <route edges="340498976#0 340498976#2 340498976#3 340498976#4 340498976#6 340498976#7 340498976#9 1119837993 1119837507#0 1119837507#1 -4610480#1 15971189 339201177#0 339201177#1 339201177#2 339201177#3 339201177#4 339201177#5 -339201177#5"/>
    </vehicle>
    <vehicle id="veh88" type="veh_passenger" depart="3331.89" departLane="best">
        <route edges="25294728#1 1102369938 1102369940#1 -1102369940#1 -1102369940#0 -25294728#1 -25294728#0 156364570#2 156364570#3 156364556#1 202157002#0 202157002#1 202157002#2 24913519#1 1144362247 541763975 4067932 339201219 -23121445#5 -23121445#4 -23121445#3 -23121445#2 -23121445#1 -23121445#0 -1335908655 -339201177#5 -339201177#4 -339201177#3 -339201177#2 -339201177#1 -339201177#0 -15971189 -1101961737 -1101961735#1 -1101961735#0 -168937986 -1101961674#3 -1101961674#2 -1101961674#1 -1101961674#0 1101961674#0 1101961674#1 1101961674#2 1101961674#3 168937986 1101961735#0"/>
    </vehicle>
    <vehicle id="veh89" type="veh_passenger" depart="3369.76" departLane="best">
        <route edges="202157002#1 202157002#2 24913519#1 1144362247 541763975 4067932 339201219 541763974"/>
    </vehicle>
    <vehicle id="veh90" type="veh_passenger" depart="3407.62" departLane="best">
        <route edges="534588621#0 534588621#3 284493291#0 24913519#1 1144362247 541763975 4067932 339201219 -23121445#5 -23121445#4 -23121445#3 -23121445#2 -23121445#1 -23121445#0 -1335908655 -339201177#5 -339201177#4 -339201177#3 -339201177#2 -339201177#1 -339201177#0 -15971189 -1101961737 -1101961735#1 -1101961735#0 -168937986"/>
    </vehicle>
    <vehicle id="veh91" type="veh_passenger" depart="3445.48" departLane="best">
        <route edges="171826985#2 24913519#1 1144362247 541763975 4067932 339201219 -23121445#5 -23121445#4 -23121445#3 -23121445#2 -23121445#1 -23121445#0 -1335908655 -339201177#5 -339201177#4 -339201177#3 -339201177#2 -339201177#1 -339201177#0 -15971189 -1101961737 -1101961735#1 -1101961735#0 -168937986 -1101961674#3 -1101961674#2 -1101961674#1 -1101961674#0 1101961674#0 1101961674#1 1101961674#2 1101961674#3 168937986 1101961735#0 1101961735#1 1101961737"/>
    </vehicle>
    <vehicle id="veh92" type="veh_passenger" depart="3483.34" departLane="best">
        <route edges="25294728#1 1102369938 1102369940#1 -1102369940#1 -1102369940#0 -25294728#1 -25294728#0 156364570#2 156364570#3 156364556#1 202157002#0 202157002#1 202157002#2 24913519#1 1144362247 541763975 4067932 339201219 -23121445#5 -23121445#4 -23121445#3 -23121445#2 -23121445#1 -23121445#0 -1335908655 -339201177#5 -339201177#4 -339201177#3 -339201177#2 -339201177#1 -339201177#0 -15971189 -1101961737 -1101961735#1 -1101961735#0 -168937986 -1101961674#3 -1101961674#2 -1101961674#1 -1101961674#0 1101961674#0 1101961674#1 1101961674#2 1101961674#3"/>
    </vehicle>
    <vehicle id="veh93" type="veh_passenger" depart="3521.21" departLane="best">
        <route edges="340498976#9 1119837993 1119837507#0 1119837507#1 -4610480#1 15971189 339201177#0 339201177#1 339201177#2 339201177#3 339201177#4 339201177#5 1335908655 23121445#0 23121445#1 23121445#2 23121445#3 23121445#4 23121445#5 831694400#0 831694400#1 23013165 4611698 202156994#0 4773465#2 1127592486#1 490365295#0 156364556#1 202157002#0"/>
    </vehicle>
    <vehicle id="veh94" type="veh_passenger" depart="3559.07" departLane="best">
        <route edges="171826985#2 24913519#1 1144362247 541763975 4067932 339201219 -23121445#5 -23121445#4 -23121445#3 -23121445#2 -23121445#1 -23121445#0 -1335908655 -339201177#5 -339201177#4 -339201177#3 -339201177#2 -339201177#1 -339201177#0 -15971189 -1101961737 -1101961735#1 -1101961735#0 -168937986 -1101961674#3 -1101961674#2 -1101961674#1 -1101961674#0"/>
    </vehicle>
    <vehicle id="veh95" type="veh_passenger" depart="3596.93" departLane="best" departSpeed="max">
        <route edges="54048862#0 831694400#0 831694400#1 23013165 4611698 202156994#0 4773465#2 1127592486#1 490365295#0 156364556#1 202157002#0"/>
    </vehicle>
</routes>
