<?xml version="1.0" encoding="UTF-8"?>

<!-- generated on 2025-04-02 00:29:52 by Eclipse SUMO duarouter Version 1.22.0
<duarouterConfiguration xmlns:xsi="http://www.w3.org/2001/XMLSchema-instance" xsi:noNamespaceSchemaLocation="http://sumo.dlr.de/xsd/duarouterConfiguration.xsd">

    <input>
        <net-file value="C:\Users\FADEL\Documents\GitHub\TrafficSimulation\public\2025-04-01-23-18-33\osm.net.xml"/>
        <route-files value="C:\Users\FADEL\Documents\GitHub\TrafficSimulation\public\2025-04-01-23-18-33\osm.passenger.trips.xml"/>
    </input>

    <output>
        <output-file value="routes.rou.xml"/>
    </output>

    <time>
        <begin value="0"/>
        <end value="3600"/>
    </time>

    <report>
        <no-warnings value="true"/>
        <ignore-errors value="true"/>
        <no-step-log value="true"/>
    </report>

</duarouterConfiguration>
-->

<routes xmlns:xsi="http://www.w3.org/2001/XMLSchema-instance" xsi:noNamespaceSchemaLocation="http://sumo.dlr.de/xsd/routes_file.xsd">
    <vType id="veh_passenger" vClass="passenger"/>
    <vehicle id="veh0" type="veh_passenger" depart="0.00" departLane="best" departSpeed="max">
        <route edges="26021076 26018633#1 26018633#2 26018633#3 26018633#4 26018887#0 26018887#1 26019107#0 26019107#1 26019107#2 26019107#3 26019107#4 26023104#0 26023104#1 26020237#6 26020242 26020227#2 26020227#3 556017182#0 556017182#1 213669214#0 213669214#1 213669214#2 516899866 1060895818 -26020486#7 -26020486#6 -26020486#5 -26020486#4 -26020486#3 -26020486#2 -26020486#1 -26020486#0"/>
    </vehicle>
    <vehicle id="veh4" type="veh_passenger" depart="47.37" departLane="best">
        <route edges="26020237#0 26020237#1 26020237#2 26020237#3 26020237#4 26020237#5 26020237#6 26020242 26020227#2 26020227#3 556017182#0 556017182#1 213669214#0 213669214#1 213669214#2 516899866 1060895818 -26020486#7 -26020486#6 -26020486#5 -26020486#4 -26020486#3 -26020486#2 -26020486#1"/>
    </vehicle>
    <vehicle id="veh5" type="veh_passenger" depart="59.21" departLane="best" departSpeed="max">
        <route edges="133369475 715829651 355559011#2 26020312#0 26020312#1 26020312#2 26020312#3 26020312#5 26020312#6 26020312#7 26020312#8 26020304#0"/>
    </vehicle>
    <vehicle id="veh6" type="veh_passenger" depart="71.06" departLane="best">
        <route edges="26019107#3 26019107#4 26023104#0 26023104#1 26020237#6 26020242 26020227#2 26020227#3 556017182#0 556017182#1 213669214#0 213669214#1 213669214#2 26023367#0 -332620253"/>
    </vehicle>
    <vehicle id="veh9" type="veh_passenger" depart="106.59" departLane="best">
        <route edges="293305762#0 293305762#1 293305762#2 26023319 26023308 26023317#0 26023317#1 292084123 -26020486#3 -26020486#2 -26020486#1 -26020486#0 225413502 225413502-AddedOffRampEdge 26023290#0 26023290#1 26023290#2"/>
    </vehicle>
    <vehicle id="veh10" type="veh_passenger" depart="118.43" departLane="best" departSpeed="max">
        <route edges="26020314 355559011#1 355559011#2 26020312#0 26020312#1 26020312#2 26020312#3 26020312#5 26020312#6 26020312#7 26020312#8 26020304#0 26020304#1 213669214#0 213669214#1 213669214#2 516899866 1060895818 -26020486#7 -26020486#6 -26020486#5 -26020486#4 -26020486#3 -26020486#2 -26020486#1 -26020486#0 225413502 225413502-AddedOffRampEdge 556018435 26020475 556018431#0"/>
    </vehicle>
    <vehicle id="veh11" type="veh_passenger" depart="130.27" departLane="best" departSpeed="max">
        <route edges="26019878#0 26019878#1 26020227#0 26020227#1 26020227#2 26020227#3 556017182#0 556017182#1 213669214#0 213669214#1 213669214#2 516899867 555963378 26020319"/>
    </vehicle>
    <vehicle id="veh12" type="veh_passenger" depart="142.11" departLane="best">
        <route edges="297192313 26262365 26020213 26019878#1 26020227#0 26020227#1 26020227#2 26020227#3 556017182#0 556017182#1 213669214#0 213669214#1 213669214#2 516899867 26020493"/>
    </vehicle>
    <vehicle id="veh16" type="veh_passenger" depart="189.49" departLane="best" departSpeed="max">
        <route edges="26021076 26018633#1 26018633#2 26018633#3 26018633#4 26018887#0 26018887#1 26019107#0 26019107#1 26019107#2 26019107#3 26019107#4 26019107#5 26019107#6 26019107#7 26019107#8"/>
    </vehicle>
    <vehicle id="veh18" type="veh_passenger" depart="213.17" departLane="best">
        <route edges="-297182837#2 -297182837#1 -25966399 26019107#0 26019107#1 26019107#2 26019107#3 26019107#4 26023104#0 26023104#1 26020237#6 26020242 26020227#2 26020227#3 556017182#0 556017182#1 213669214#0 213669214#1 213669214#2 516899866 1060895818 -26020486#7 -26020486#6 -26020486#5 -26020486#4 -26020486#3 -26020486#2 -26020486#1 -26020486#0 225413502 225413502-AddedOffRampEdge 26023290#0 26023290#1 26023290#2"/>
    </vehicle>
    <vehicle id="veh23" type="veh_passenger" depart="272.39" departLane="best" departSpeed="max">
        <route edges="555390982#0 555390982#1 555390982#2 26018633#0 26018633#1 26018633#2 26018633#3 26018633#4 26018887#0 26018887#1 26019107#0 26019107#1 26019107#2 26019107#3 26019107#4 26023104#0 26023104#1 26020237#6"/>
    </vehicle>
    <vehicle id="veh26" type="veh_passenger" depart="307.91" departLane="best">
        <route edges="26020227#0 26020227#1 26020227#2 26020227#3 556017182#0 556017182#1 213669214#0 213669214#1 213669214#2"/>
    </vehicle>
    <vehicle id="veh29" type="veh_passenger" depart="343.44" departLane="best">
        <route edges="29081094#3 26020468#0 26020468#1 26020468#2 26020468#3 556018431#0 556018431#1 26020486#0 26020486#1 26020486#2 26020486#3 26020486#4 26020232"/>
    </vehicle>
    <vehicle id="veh30" type="veh_passenger" depart="355.29" departLane="best">
        <route edges="-26023107#0 26020237#4 26020237#5 26020237#6 26020237#7 26020237#8 25966399 26020117"/>
    </vehicle>
    <vehicle id="veh33" type="veh_passenger" depart="390.81" departLane="best" departSpeed="max">
        <route edges="-1317046062 327178665#0 26022227#1 213669214#2 516899866 1060895818 -26020486#7 -26020486#6 -26020486#5 -26020486#4 -26020486#3 -26020486#2 -26020486#1 -26020486#0 225413502 225413502-AddedOffRampEdge 26023290#0 26023290#1"/>
    </vehicle>
    <vehicle id="veh34" type="veh_passenger" depart="402.66" departLane="best">
        <route edges="26023135#0 26023099#0 -26023111#0 26020237#3 26020237#4 26020237#5 26020237#6 26020242 26020227#2 26020227#3 556017182#0 556017182#1 213669214#0 213669214#1 213669214#2 516899867 555963378 26020319"/>
    </vehicle>
    <vehicle id="veh37" type="veh_passenger" depart="438.18" departLane="best">
        <route edges="355559011#3 355559011#4 355559011#1 355559011#2 26020312#0 26020312#1 26020312#2 26020312#3 26020312#5 26020312#6 26020312#7 26020312#8 26020304#0 26020304#1 213669214#0 213669214#1 213669214#2 26023367#0 26023367#1 555390982#1 555390982#2 26018633#0 26018633#1"/>
    </vehicle>
    <vehicle id="veh39" type="veh_passenger" depart="461.87" departLane="best">
        <route edges="26020675#0 26020842#1 -297182837#3 -297182837#2 -297182837#1 -25966399 26019107#0 26019107#1 26019107#2 26019107#3 26019107#4 26023104#0 26023104#1 26020237#6 26020242 26020227#2 26020227#3 556017182#0 556017182#1 213669214#0 213669214#1 213669214#2 26023367#0 -332620253"/>
    </vehicle>
    <vehicle id="veh43" type="veh_passenger" depart="509.24" departLane="best">
        <route edges="-26023135#0 26020237#2 26020237#3 26020237#4 26020237#5 26020237#6 26020242 26020227#2 26020227#3 556017182#0 556017182#1 213669214#0 213669214#1 213669214#2 516899866 1060895818 1060895819 26023366#0 26023366#1 293305762#0 293305762#1 293305762#2 26023319 375005455 26023318#0 26023318#1 26023318#2 26023318#3 26023318#4 26023318#5"/>
    </vehicle>
    <vehicle id="veh45" type="veh_passenger" depart="532.93" departLane="best">
        <route edges="26020266#1 26020266#2 26020266#3 26023226 26020312#6 26020312#7 26020312#8 26020304#0 26020304#1 213669214#0 213669214#1 213669214#2 516899867 555963378 26020319"/>
    </vehicle>
    <vehicle id="veh46" type="veh_passenger" depart="544.77" departLane="best">
        <route edges="26020237#1 26020237#2 26020237#3 26020237#4 26020237#5 26020237#6 26020242 26020227#2 26020227#3 556017182#0 556017182#1 213669214#0"/>
    </vehicle>
    <vehicle id="veh49" type="veh_passenger" depart="580.30" departLane="best" departSpeed="max">
        <route edges="-26023319 -293305762#2 293305762#2 26023319 26023308 26023317#0 26023317#1 292084123 -26020486#3 -26020486#2 -26020486#1 -26020486#0 225413502 225413502-AddedOffRampEdge"/>
    </vehicle>
    <vehicle id="veh50" type="veh_passenger" depart="592.14" departLane="best">
        <route edges="26019107#3 26019107#4 26023104#0 26023104#1 26020237#6 26020242 26020227#2 26020227#3 556017182#0 556017182#1 213669214#0 213669214#1 213669214#2 516899866 1060895818 -26020486#7 -26020486#6 -26020486#5 -26020486#4 -26020486#3 -26020486#2 26020486#2 26020486#3"/>
    </vehicle>
    <vehicle id="veh52" type="veh_passenger" depart="615.83" departLane="best">
        <route edges="-26023135#1 -26023135#0 26020237#2 26020237#3 26020237#4 26020237#5 26020237#6 26020237#7 26020237#8 25966399 297182837#0 297182837#2 297182837#3 297182837#4 -26020856#2 26020675#2"/>
    </vehicle>
    <vehicle id="veh53" type="veh_passenger" depart="627.67" departLane="best">
        <route edges="327178665#0 327178665#1 26022872#1 26022872#2 26018887#0 26018887#1 26019107#0 26019107#1 26019107#2 26019107#3 26019107#4 26019107#5 26019107#6 -26023107#1 -26023107#0"/>
    </vehicle>
    <vehicle id="veh55" type="veh_passenger" depart="651.36" departLane="best" departSpeed="max">
        <route edges="555390982#0 555390982#1 555390982#2 556022792#0 556022792#1 26022227#0 26022227#1 213669214#2 516899866 1060895818 -26020486#7 -26020486#6 -26020486#5 -26020486#4 -26020486#3 -26020486#2 -26020486#1 -26020486#0 225413502 225413502-AddedOffRampEdge 556018435 26020492#0 26020492#1-AddedOnRampEdge 26020492#1 29081094#1 29081094#2 29081094#3 26020468#0 26020468#1"/>
    </vehicle>
    <vehicle id="veh58" type="veh_passenger" depart="686.88" departLane="best">
        <route edges="26020237#1 26020237#2 26020237#3 26020237#4 26020237#5 26020237#6 26020237#7 26020237#8"/>
    </vehicle>
    <vehicle id="veh63" type="veh_passenger" depart="746.10" departLane="best">
        <route edges="26020237#0 26020237#1 26020237#2 26020237#3 26020237#4 26020237#5 26020237#6 26020242 26020227#2 26020227#3 556017182#0 556017182#1 213669214#0 26022872#0 26022872#1 26022872#2 26018633#5"/>
    </vehicle>
    <vehicle id="veh64" type="veh_passenger" depart="757.94" departLane="best" departSpeed="max">
        <route edges="26020314 355559011#1 355559011#2 26020312#0 26020312#1 26020312#2 26020312#3 26020312#5 26020312#6 26020312#7 26020312#8 26020304#0 26020304#1 213669214#0 213669214#1 213669214#2 516899866 1060895818 -26020486#7"/>
    </vehicle>
    <vehicle id="veh68" type="veh_passenger" depart="805.31" departLane="best">
        <route edges="26020237#7 26020237#8 25966399 -25966399 26019107#0 26019107#1 26019107#2 26019107#3 26019107#4 26023104#0 26023104#1 26020237#6 26020242 26020227#2 26020227#3 26020266#0 26020266#1 26020266#2 26020266#3 26020266#4 26020266#5 26020266#6 26020266#7 26020266#8 26020237#0"/>
    </vehicle>
    <vehicle id="veh69" type="veh_passenger" depart="817.16" departLane="best">
        <route edges="556017182#1 213669214#0 213669214#1 213669214#2 516899866 1060895818 -26020486#7 -26020486#6 -26020486#5 -26020486#4 -26020486#3 -26020486#2 -26020486#1 -26020486#0 225413502 225413502-AddedOffRampEdge 556018435 26020492#0 26020492#1-AddedOnRampEdge 26020492#1 29081094#1 29081094#2 29081094#3 26020468#0 26020468#1 26022376 767692757#0 767692757#1"/>
    </vehicle>
    <vehicle id="veh70" type="veh_passenger" depart="829.00" departLane="best" departSpeed="max">
        <route edges="26020314 355559011#1 355559011#2 26020312#0 26020312#1 26020312#2 26020312#3 26020312#5 26020312#6 26020312#7 26020312#8 26020304#0 26020304#1 213669214#0 213669214#1 213669214#2 516899866 1060895818 1060895819 26023366#0 26023366#1 293305762#0 293305762#1 293305762#2 26023319 375005455 26023318#0"/>
    </vehicle>
    <vehicle id="veh71" type="veh_passenger" depart="840.84" departLane="best">
        <route edges="-26020856#2 -26020856#1 26018633#2 26018633#3 26018633#4 26018887#0 26018887#1 26019107#0 26019107#1 26019107#2 26019107#3 26019107#4 26023104#0 26023104#1 26020237#6 26020242 26020227#2 26020227#3 556017182#0 556017182#1 213669214#0 213669214#1 213669214#2 516899866 1060895818 -26020486#7 -26020486#6 -26020486#5 -26020486#4 -26020486#3 -26020486#2 -26020486#1 -26020486#0 26020486#0 26020486#1"/>
    </vehicle>
    <vehicle id="veh73" type="veh_passenger" depart="864.53" departLane="best" departSpeed="max">
        <route edges="-26023264 26020312#5 26020312#6 26020312#7 26020312#8 26020304#0 26020304#1 213669214#0 213669214#1 213669214#2 516899866 1060895818"/>
    </vehicle>
    <vehicle id="veh76" type="veh_passenger" depart="900.06" departLane="best" departSpeed="max">
        <route edges="50999963#0 50999963#1 50999963#2 26015250"/>
    </vehicle>
    <vehicle id="veh77" type="veh_passenger" depart="911.90" departLane="best">
        <route edges="26020492#0 26020492#1-AddedOnRampEdge 26020492#1 29081094#1 29081094#2 29081094#3 26020468#0 26020468#1 26020468#2 26020468#3 556018431#0 556018431#1 26020486#0 26020486#1 26020486#2 26020486#3 26020486#4 26020486#5 26020486#6 26020486#7 1060895817 26020494"/>
    </vehicle>
    <vehicle id="veh78" type="veh_passenger" depart="923.74" departLane="best">
        <route edges="26020237#0 26020237#1 26020237#2 26020237#3 26020237#4 26020237#5 26020237#6 26020242 26020227#2 26020227#3 556017182#0 556017182#1 213669214#0 213669214#1 213669214#2 516899866 1060895818 -26020486#7 -26020486#6 -26020486#5 -26020486#4 -26020486#3 -26020486#2 -26020486#1 -26020486#0 26020486#0 26020486#1"/>
    </vehicle>
    <vehicle id="veh80" type="veh_passenger" depart="947.43" departLane="best">
        <route edges="26018887#0 26018887#1 26019107#0 26019107#1 26019107#2 26019107#3 26019107#4 26023104#0 26023104#1 26020237#6 26020242 26020227#2 26020227#3 556017182#0 556017182#1 213669214#0 213669214#1 213669214#2 516899866 1060895818 1060895819 26023366#0 26023366#1 293305762#0 293305762#1 293305762#2 26023319 375005455 26023318#0 26023318#1 26023318#2"/>
    </vehicle>
    <vehicle id="veh81" type="veh_passenger" depart="959.27" departLane="best">
        <route edges="819334565#2 28959956#2 28959956#3 28959956#4 28959956#5 28959956#6 293305762#0 293305762#1 293305762#2 26023319 26023308 26023317#0 26023317#1 292084123 -26020486#3 -26020486#2 -26020486#1 -26020486#0 225413502 225413502-AddedOffRampEdge 556018435 26020492#0 26020492#1-AddedOnRampEdge 26020492#1 29081094#1 29081094#2 29081094#3 26020468#0 26020468#1 26022376 767692757#0 767692757#1"/>
    </vehicle>
    <vehicle id="veh82" type="veh_passenger" depart="971.11" departLane="best">
        <route edges="-26023149 26023149 26020237#1 26020237#2 26020237#3 26020237#4 26020237#5 26020237#6 26020242 26020227#2 26020227#3 556017182#0 556017182#1 213669214#0"/>
    </vehicle>
    <vehicle id="veh84" type="veh_passenger" depart="994.80" departLane="best" departSpeed="max">
        <route edges="50999963#0 50999963#1 50999963#2 297192313 26262365 26020213 26019878#1 26019107#0 26019107#1 26019107#2 26019107#3 26019107#4 26023104#0 26023104#1 26020237#6 26020237#7 26020237#8 25966399 297182837#0 297182837#2 297182837#3 297182837#4 297182837#5"/>
    </vehicle>
    <vehicle id="veh85" type="veh_passenger" depart="1006.64" departLane="best">
        <route edges="26019107#9 26023149 26020237#1 26020237#2 26020237#3 26020237#4 26020237#5 26020237#6 26020242 26020227#2 26020227#3 556017182#0 556017182#1 213669214#0 213669214#1 213669214#2 516899866 1060895818 -26020486#7 -26020486#6 -26020486#5 -26020486#4 -26020486#3 -26020486#2 -26020486#1 -26020486#0 225413502 225413502-AddedOffRampEdge 556018435 26020492#0 26020492#1-AddedOnRampEdge 26020492#1 29081094#1 29081094#2 29081094#3 26020468#0 26020468#1 26022376 767692757#0 767692757#1 -767692757#1 -767692757#0"/>
    </vehicle>
    <vehicle id="veh87" type="veh_passenger" depart="1030.33" departLane="best">
        <route edges="26020675#1 26020856#2 -297182837#4 -297182837#3 -297182837#2 -297182837#1 -25966399 26019107#0 26019107#1 26019107#2 26019107#3 26019107#4 26023104#0 26023104#1 26020237#6 26020242 26020227#2 26020227#3 556017182#0 556017182#1 213669214#0 213669214#1 213669214#2 516899866 1060895818 -26020486#7 -26020486#6 -26020486#5 -26020486#4 -26020486#3 -26020486#2 -26020486#1 -26020486#0 225413502 225413502-AddedOffRampEdge 556018435 26020492#0 26020492#1-AddedOnRampEdge 26020492#1 29081094#1 29081094#2 29081094#3 26020468#0 26020468#1 26022376 767692757#0"/>
    </vehicle>
    <vehicle id="veh89" type="veh_passenger" depart="1054.01" departLane="best" departSpeed="max">
        <route edges="-26023300#2 26023300#2 1324257026 26020492#1-AddedOnRampEdge 26020492#1 29081094#1 29081094#2 29081094#3 26020468#0 26020468#1 26020468#2 26020468#3 556018431#0 556018431#1 26020486#0 26020486#1 26020486#2 26020486#3 26020486#4 26020486#5 26020486#6 26020486#7 1060895817 26020494 26020319"/>
    </vehicle>
    <vehicle id="veh92" type="veh_passenger" depart="1089.54" departLane="best">
        <route edges="26020237#1 26020237#2 26020237#3 26020237#4 26020237#5 26020237#6 26020242 26020227#2 26020227#3 556017182#0 556017182#1 213669214#0 26022872#0 26022872#1 26022872#2 26018633#5"/>
    </vehicle>
    <vehicle id="veh94" type="veh_passenger" depart="1113.23" departLane="best">
        <route edges="26020237#1 26020237#2 26020237#3 26020237#4 26020237#5 26020237#6 26020242 26020227#2 26020227#3 556017182#0 556017182#1 213669214#0 213669214#1 213669214#2 516899866 -26022704#0 -1317046063"/>
    </vehicle>
    <vehicle id="veh95" type="veh_passenger" depart="1125.07" departLane="best" departSpeed="max">
        <route edges="-26023264 26020312#5 26020312#6 26020312#7 26020312#8 26020304#0 26020304#1 213669214#0 26022872#0 26022872#1 26022872#2 26018878#0 297182837#3 297182837#4 297182837#5"/>
    </vehicle>
    <vehicle id="veh96" type="veh_passenger" depart="1136.91" departLane="best">
        <route edges="50999963#2 297192313 26262365 26020213 26019878#1 26020227#0 26020227#1 26020227#2 26020227#3 556017182#0 556017182#1 213669214#0 213669214#1 213669214#2 516899867 555963378 26020319"/>
    </vehicle>
    <vehicle id="veh100" type="veh_passenger" depart="1184.28" departLane="best">
        <route edges="50999963#1 50999963#2 297192313 26262365 26020213 26019878#1 26019107#0 26019107#1 26019107#2 26019107#3 26019107#4 26023104#0 26023104#1 26020237#6 153284063"/>
    </vehicle>
    <vehicle id="veh103" type="veh_passenger" depart="1219.81" departLane="best">
        <route edges="26020227#1 26020227#2 26020227#3 556017182#0 556017182#1 213669214#0 213669214#1 213669214#2 516899867 26020493 26020494"/>
    </vehicle>
    <vehicle id="veh105" type="veh_passenger" depart="1243.50" departLane="best" departSpeed="max">
        <route edges="332620253 26023367#1 555390982#1 555390982#2 556022792#0 556022792#1 26022227#0 26022227#1 213669214#2 516899866 1060895818 -26020486#7 -26020486#6 -26020486#5 -26020486#4 -26020486#3 -26020486#2 -26020486#1 -26020486#0 225413502 225413502-AddedOffRampEdge 556018435"/>
    </vehicle>
    <vehicle id="veh108" type="veh_passenger" depart="1279.03" departLane="best">
        <route edges="26019107#2 26019107#3 26019107#4 26023104#0 26023104#1 26020237#6 26020242 26020227#2 26020227#3 26020266#0 26020266#1 26020266#2 26020266#3 26020266#4 26020266#5 26020266#6 26020266#7 26023203#0 26023203#1 26023203#2 355559011#4"/>
    </vehicle>
    <vehicle id="veh110" type="veh_passenger" depart="1302.71" departLane="best">
        <route edges="355559011#1 355559011#2 26020312#0 26023217 26020266#7 26020266#8 26020237#0 26020237#1 26020237#2 26020237#3 26020237#4 26020237#5 26020237#6 26020237#7 26020237#8 25966399 297182837#0"/>
    </vehicle>
    <vehicle id="veh111" type="veh_passenger" depart="1314.55" departLane="best" departSpeed="max">
        <route edges="133369475 715829651 355559011#2 26020312#0 26020312#1 26020312#2 26020312#3 26020312#5 26020312#6 26020312#7 26020312#8 26020304#0 26020304#1 213669214#0 213669214#1 213669214#2 516899866 1060895818 -26020486#7 -26020486#6 -26020486#5 -26020486#4 -26020486#3 -26020486#2 -26020486#1 -26020486#0 225413502 225413502-AddedOffRampEdge 556018435 26020492#0 26020492#1-AddedOnRampEdge 26020492#1 29081094#1"/>
    </vehicle>
    <vehicle id="veh112" type="veh_passenger" depart="1326.40" departLane="best">
        <route edges="26020237#8 25966399 -25966399 26019107#0 26019107#1 26019107#2 26019107#3 26019107#4 26019107#5 26019107#6 26019107#7 26019107#8 26019107#9 26019107#10"/>
    </vehicle>
    <vehicle id="veh123" type="veh_passenger" depart="1456.67" departLane="best" departSpeed="max">
        <route edges="26019878#0 26019878#1 26020227#0 26020227#1 26020227#2 26020227#3 556017182#0 556017182#1 213669214#0 213669214#1 213669214#2 516899866 1060895818 -26020486#7 -26020486#6 -26020486#5 -26020486#4 -26020486#3 -26020486#2 -26020486#1 -26020486#0 225413502 225413502-AddedOffRampEdge 556018435 26020475"/>
    </vehicle>
    <vehicle id="veh125" type="veh_passenger" depart="1480.35" departLane="best" departSpeed="max">
        <route edges="26020314 355559011#1 355559011#2 26020312#0 26020312#1 26020312#2 26020312#3 26020312#5 26020312#6 26020312#7 26020312#8 26020304#0 26020304#1 213669214#0 213669214#1 213669214#2 516899866 1060895818 -26020486#7 -26020486#6 -26020486#5 -26020486#4 -26020486#3 -26020486#2 -26020486#1 -26020486#0 225413502 225413502-AddedOffRampEdge 26023290#0 26023290#1"/>
    </vehicle>
    <vehicle id="veh127" type="veh_passenger" depart="1504.04" departLane="best">
        <route edges="26019107#8 -26023135#1 -26023135#0 26020237#2 26020237#3 26020237#4 26020237#5 26020237#6 26020242 26020227#2 26020227#3 556017182#0 556017182#1 213669214#0 213669214#1 213669214#2 516899867 26020493 -26022704#1"/>
    </vehicle>
    <vehicle id="veh130" type="veh_passenger" depart="1539.57" departLane="best">
        <route edges="-28959908#0 28959956#3 28959956#4 28959956#5 28959956#6 293305762#0 293305762#1 293305762#2 26023319 26023308 26023317#0 26023317#1 292084123 26020486#4 26020232"/>
    </vehicle>
    <vehicle id="veh131" type="veh_passenger" depart="1551.41" departLane="best">
        <route edges="555390982#1 555390982#2 26018633#0 26018633#1 26018633#2 26018633#3 26018633#4 26018887#0 26018887#1 26019107#0 26019107#1 26019107#2 26019107#3 26019107#4 26019107#5 26019107#6 26019107#7 26019107#8 -26023135#1 26023135#1"/>
    </vehicle>
    <vehicle id="veh132" type="veh_passenger" depart="1563.25" departLane="best">
        <route edges="50999963#2 297192313 26262365 26020213 26019878#1 26020227#0 26020227#1 26020227#2 26020227#3 556017182#0 556017182#1 213669214#0 213669214#1 213669214#2 516899866 1060895818 -26020486#7 -26020486#6 -26020486#5 -26020486#4 -26020486#3 -26020486#2 -26020486#1 -26020486#0 225413502 225413502-AddedOffRampEdge 556018435 26020492#0 26020492#1-AddedOnRampEdge"/>
    </vehicle>
    <vehicle id="veh133" type="veh_passenger" depart="1575.10" departLane="best">
        <route edges="26018633#4 26018887#0 26018887#1 26019107#0 26019107#1 26019107#2 26019107#3 26019107#4 26023104#0 26023104#1 26020237#6 26020242 26020227#2 26020227#3 556017182#0 556017182#1 213669214#0 213669214#1 213669214#2 516899867 555963378 26020319"/>
    </vehicle>
    <vehicle id="veh136" type="veh_passenger" depart="1610.63" departLane="best" departSpeed="max">
        <route edges="26021076 26018633#1 26018633#2 26018633#3 26018633#4 26018887#0 26018887#1 26019107#0 26019107#1 26019107#2 26019107#3"/>
    </vehicle>
    <vehicle id="veh137" type="veh_passenger" depart="1622.47" departLane="best">
        <route edges="297182837#2 -297182837#2 -297182837#1 -25966399 26019107#0 26019107#1 26019107#2 26019107#3 26019107#4 26023104#0 26023104#1 26020237#6 26020242 26020227#2 26020227#3 556017182#0 556017182#1 213669214#0 213669214#1 213669214#2 516899866 1060895818 1060895819 26023366#0 26023366#1 293305762#0 293305762#1 293305762#2 26023319 375005455 26023318#0 26023318#1 26023318#2"/>
    </vehicle>
    <vehicle id="veh138" type="veh_passenger" depart="1634.31" departLane="best">
        <route edges="26023107#1 -26023107#1 -26023107#0 26020237#4 26020237#5 26020237#6 26020242 26020227#2 26020227#3 556017182#0 556017182#1 213669214#0 213669214#1 213669214#2 516899866 1060895818 -26020486#7 -26020486#6 -26020486#5 -26020486#4 -26020486#3 -26020486#2 -26020486#1 -26020486#0 225413502 225413502-AddedOffRampEdge"/>
    </vehicle>
    <vehicle id="veh140" type="veh_passenger" depart="1658.00" departLane="best">
        <route edges="26020312#3 26020312#5 26020312#6 26020312#7 26020312#8 26020304#0 26020304#1 213669214#0 213669214#1 213669214#2 516899866 1060895818 -26020486#7"/>
    </vehicle>
    <vehicle id="veh143" type="veh_passenger" depart="1693.53" departLane="best">
        <route edges="26023104#0 26023104#1 26020237#6 26020242 26020227#2 26020227#3 556017182#0 556017182#1 213669214#0 213669214#1 213669214#2 516899866 1060895818 -26020486#7 -26020486#6 -26020486#5 -26020486#4 -26020486#3 -26020486#2 -26020486#1 -26020486#0 225413502 225413502-AddedOffRampEdge 556018435 26020492#0 26020492#1-AddedOnRampEdge 26020492#1 29081094#1 29081094#2 29081094#3 26020468#0 26020468#1 26022376 767692757#0 767692757#1"/>
    </vehicle>
    <vehicle id="veh145" type="veh_passenger" depart="1717.21" departLane="best" departSpeed="max">
        <route edges="50999963#0 50999963#1 50999963#2 297192313 26262365 26020213 26019878#1 26020227#0 26020227#1 26020227#2 26020227#3 556017182#0 556017182#1 213669214#0 213669214#1 213669214#2 516899866 1060895818 -26020486#7 -26020486#6 -26020486#5 -26020486#4 -26020486#3 -26020486#2 -26020486#1 -26020486#0 225413502 225413502-AddedOffRampEdge 556018435 26020492#0 26020492#1-AddedOnRampEdge"/>
    </vehicle>
    <vehicle id="veh148" type="veh_passenger" depart="1752.74" departLane="best" departSpeed="max">
        <route edges="50999963#0 50999963#1 50999963#2 297192313 26262365 26020213 26019878#1 26020227#0 26020227#1 26020227#2 26020227#3 556017182#0 556017182#1 213669214#0 213669214#1 213669214#2 516899866 1060895818 1060895819 26023366#0 26023366#1 293305762#0 293305762#1 293305762#2 26023319 26023308"/>
    </vehicle>
    <vehicle id="veh150" type="veh_passenger" depart="1776.43" departLane="best" departSpeed="max">
        <route edges="26021076 26018633#1 26018633#2 26018633#3 26018633#4"/>
    </vehicle>
    <vehicle id="veh151" type="veh_passenger" depart="1788.27" departLane="best" departSpeed="max">
        <route edges="-26023264 26020312#5 26020312#6 26020312#7 26020312#8 26020304#0 26020304#1 213669214#0 26022872#0 26022872#1 26022872#2 26018887#0"/>
    </vehicle>
    <vehicle id="veh153" type="veh_passenger" depart="1811.95" departLane="best" departSpeed="max">
        <route edges="26020314 355559011#1 355559011#2 26020312#0 26020312#1 26020312#2 26020312#3 26020312#5 26020312#6 26020312#7 26020312#8 26020304#0 26020304#1 213669214#0 213669214#1 213669214#2 516899866 1060895818 1060895819 26023366#0 26023366#1 293305762#0 -28960017#1 -28960017#0 -293305762#1"/>
    </vehicle>
    <vehicle id="veh155" type="veh_passenger" depart="1835.64" departLane="best" departSpeed="max">
        <route edges="26023288 26023285#1 26020312#1 26020312#2 26020312#3 26020312#5 26020312#6 26020312#7 26020312#8 26020304#0 26020304#1 213669214#0 26022872#0 26022872#1 26022872#2 26018878#0 297182837#3 297182837#4 -26020856#2 -26020856#1"/>
    </vehicle>
    <vehicle id="veh156" type="veh_passenger" depart="1847.48" departLane="best">
        <route edges="26020227#2 26020227#3 556017182#0 556017182#1 213669214#0 213669214#1 213669214#2 516899867 555963378 26020319"/>
    </vehicle>
    <vehicle id="veh160" type="veh_passenger" depart="1894.85" departLane="best" departSpeed="max">
        <route edges="26019878#0 26019878#1 26020227#0 26020227#1 26020227#2 26020227#3 556017182#0 556017182#1 213669214#0 213669214#1 213669214#2 516899866 -26022704#0 -1317046063"/>
    </vehicle>
    <vehicle id="veh161" type="veh_passenger" depart="1906.70" departLane="best">
        <route edges="26019107#5 26023128#0 26023128#1 26020237#5 26020237#6 26020242 26020227#2 26020227#3 556017182#0 556017182#1 213669214#0 213669214#1 213669214#2 516899866 1060895818 1060895819 26023366#0 26023366#1 293305762#0 293305762#1 293305762#2 26023319 375005455 26023318#0 26023318#1 26023318#2 26023318#3"/>
    </vehicle>
    <vehicle id="veh163" type="veh_passenger" depart="1930.38" departLane="best">
        <route edges="26020237#0 26020237#1 26020237#2 26020237#3 26020237#4 26020237#5 26020237#6 26020242 26020227#2 26020227#3 556017182#0 556017182#1 213669214#0 213669214#1 213669214#2 516899866 1060895818 1060895819 26023366#0 26023366#1 293305762#0 293305762#1 293305762#2 26023319 375005455 26023318#0"/>
    </vehicle>
    <vehicle id="veh164" type="veh_passenger" depart="1942.23" departLane="best" departSpeed="max">
        <route edges="26020314 355559011#1 355559011#2 26020312#0 26020312#1 26020312#2 26020312#3 26020312#5 26020312#6 26020312#7 26020312#8 26020304#0 26020304#1 213669214#0 213669214#1 213669214#2 516899866 1060895818 -26020486#7 -26020486#6 -26020486#5 26020486#5 26020486#6 26020486#7"/>
    </vehicle>
    <vehicle id="veh165" type="veh_passenger" depart="1954.07" departLane="best" departSpeed="max">
        <route edges="133369475 715829651 355559011#2 26020312#0 26020312#1 26020312#2 26020312#3 26020312#5 26020312#6 26020312#7 26020312#8 26020304#0 26020304#1 213669214#0 213669214#1 213669214#2"/>
    </vehicle>