<?xml version="1.0" encoding="UTF-8"?>

<!-- generated on 2025-03-26 02:51:08 by Eclipse SUMO duarouter Version 1.22.0
<duarouterConfiguration xmlns:xsi="http://www.w3.org/2001/XMLSchema-instance" xsi:noNamespaceSchemaLocation="http://sumo.dlr.de/xsd/duarouterConfiguration.xsd">

    <input>
        <net-file value="C:\Users\FADEL\Sumo\2025-03-26-02-13-59\osm.net.xml"/>
        <route-files value="C:\Users\FADEL\Sumo\2025-03-26-02-13-59\osm.passenger.trips.xml"/>
    </input>

    <output>
        <output-file value="routes.rou.xml"/>
    </output>

    <time>
        <begin value="0"/>
        <end value="3600"/>
    </time>

    <report>
        <no-warnings value="true"/>
        <ignore-errors value="true"/>
        <no-step-log value="true"/>
    </report>

</duarouterConfiguration>
-->

<routes xmlns:xsi="http://www.w3.org/2001/XMLSchema-instance" xsi:noNamespaceSchemaLocation="http://sumo.dlr.de/xsd/routes_file.xsd">
    <vType id="veh_passenger" vClass="passenger"/>
    <vehicle id="veh0" type="veh_passenger" depart="0.00" departLane="best">
        <route edges="26020856#2 -297182837#4 -297182837#3 -297182837#2 -297182837#1 -25966399 26019107#0 26019107#1 26019107#2 26019107#3 26019107#4 26023104#0 26023104#1 26020237#7 26020242 26020227#2 26020227#3 556017182#0 556017182#1 213669214#0 213669214#1 213669214#2 516899866 1060895818 -26020486#7 -26020486#6 -26020486#5 -26020486#4 -26020486#3 -26020486#2 -26020486#1 -26020486#0 225413502 225413502-AddedOffRampEdge 556018435 26020492#0 26020492#1-AddedOnRampEdge 26020492#1 29081094#1 29081094#2 29081094#3 213669217#0 213669217#1 -26020392#9 -26020392#8 -26020392#7 -26020392#6 -26020392#5 -26020392#4 -26020392#3 -26020392#2 -26020392#1 -26020392#0"/>
    </vehicle>
    <vehicle id="veh3" type="veh_passenger" depart="30.18" departLane="best">
        <route edges="26020227#2 26020227#3 556017182#0 556017182#1 213669214#0 213669214#1 213669214#2 516899866 1060895818 -26020486#7 -26020486#6 -26020486#5 -26020486#4 -26020486#3 -26020486#2 -26020486#1 -26020486#0 225413502 225413502-AddedOffRampEdge 556018435 26020492#0 26020492#1-AddedOnRampEdge 26020492#1 29081094#1 29081094#2 29081094#3 213669217#0 213669217#1 -26020392#9 -26020392#8 -26020392#7 -26020392#6 -26020392#5 -26020392#4 -26020392#3 -26020392#2"/>
    </vehicle>
    <vehicle id="veh4" type="veh_passenger" depart="40.24" departLane="best" departSpeed="max">
        <route edges="-297182837#5 -297182837#4 -297182837#3 -297182837#2 -297182837#1 -25966399 26019107#0 26019107#1 26019107#2 26019107#3 26019107#4 26023104#0 26023104#1 26020237#7 26020242 26020227#2 26020227#3 26020266#0 26020266#1 26020266#2 26020266#3 26020266#4 26020266#5 26023220 26020312#2"/>
    </vehicle>
    <vehicle id="veh5" type="veh_passenger" depart="50.30" departLane="best" departSpeed="max">
        <route edges="26021076 26018633#2 26018633#3 26018633#4 26018887#0 26018887#1 26019107#0 26019107#1 26019107#2 26019107#3 26019107#4 26023104#0 26023104#1 26020237#7 26020242 26020227#2 26020227#3 556017182#0 556017182#1 213669214#0 213669214#1 213669214#2 516899866 1060895818 -26020486#7 -26020486#6 -26020486#5 -26020486#4 -26020486#3 -26020486#2 -26020486#1 -26020486#0 225413502 225413502-AddedOffRampEdge 556018435 26020492#0 26020492#1-AddedOnRampEdge 26020492#1 29081094#1 29081094#2 29081094#3 29081094#4 29081094#5 26020468#0"/>
    </vehicle>
    <vehicle id="veh6" type="veh_passenger" depart="60.37" departLane="best" departSpeed="max">
        <route edges="29081348#0 -29081536#1 -29081532#0 29081360#0 29081360#1 29081360#2 29081360#3 265399231#0 265399231#1 265399231#2 26020392#9 29081103 29081094#5 26020468#0 26020468#1 26020468#2 26020468#3 556018431#0 556018431#1 26020486#0 26020486#1 26020486#2 26020486#3 26020486#4 26020486#5 26020486#6 26020486#7 1060895817 -26022704#1 -26022704#0 -1317046063"/>
    </vehicle>
    <vehicle id="veh7" type="veh_passenger" depart="70.43" departLane="best" departSpeed="max">
        <route edges="29081348#0 -29081536#1 -29081532#0 29081360#0 29081360#1 29081360#2 29081360#3 265399231#0 265399231#1 265399231#2 26020392#9 29081103 29081094#5 29081094#0 29081094#1 1040761414 26020464#0 29169773#0 29169773#1 26023300#1 26023292"/>
    </vehicle>
    <vehicle id="veh8" type="veh_passenger" depart="80.49" departLane="best">
        <route edges="26018887#0 26018887#1 26019107#0 26019107#1 26019107#2 26019107#3 26019107#4 26023104#0 26023104#1 26020237#7 26020242 26020227#2 26020227#3 556017182#0 556017182#1 213669214#0 213669214#1 213669214#2 516899866 1060895818 -26020486#7 -26020486#6 -26020486#5 -26020486#4 -26020486#3 -26020486#2 -26020486#1 -26020486#0 225413502 225413502-AddedOffRampEdge 556018435 26020492#0 26020492#1-AddedOnRampEdge 26020492#1 29081094#1 29081094#2 29081094#3 213669217#0 213669217#1 -26020392#9 -26020392#8 -26020392#7 -26020392#6 -26020392#5 -26020392#4 -29081348#5 -29081348#4"/>
    </vehicle>
    <vehicle id="veh12" type="veh_passenger" depart="120.73" departLane="best" departSpeed="max">
        <route edges="26020314#0 26020314#1 355559011#1 355559011#2 26020312#0 26023217 26020266#7 26020266#8 26020237#0 26020237#1 26020237#2 26020237#3 26020237#4 26020237#5 26020237#6 26020237#7 26020242 26020227#2 26020227#3 556017182#0 556017182#1"/>
    </vehicle>
    <vehicle id="veh13" type="veh_passenger" depart="130.79" departLane="best">
        <route edges="26019107#6 -26023107#1 -26023107#0 26020237#5 26020237#6 26020237#7 26020242 26020227#2 26020227#3 556017182#0 556017182#1 213669214#0 213669214#1 213669214#2 516899866 1060895818 -26020486#7 -26020486#6 -26020486#5 -26020486#4 -26020486#3 -26020486#2 -26020486#1 -26020486#0 225413502 225413502-AddedOffRampEdge 556018435 26020475"/>
    </vehicle>
    <vehicle id="veh14" type="veh_passenger" depart="140.85" departLane="best">
        <route edges="29081377#1 29081382#2 265399231#1 265399231#2 26020392#9 29081103 29081094#5 26020468#0 26020468#1 26020468#2 26020468#3 556018431#0 556018431#1 26020486#0 26020486#1 26020486#2 26020486#3 26020486#4 26020486#5 26020486#6 26020486#7 1060895817 -26022704#1 -26022704#0 -1317046063 1317046063 26022704#0"/>
    </vehicle>
    <vehicle id="veh17" type="veh_passenger" depart="171.03" departLane="best" departSpeed="max">
        <route edges="26020842#0 26020842#1 -297182837#3 -297182837#2 -297182837#1 -25966399 26019107#0 26019107#1 26019107#2 26019107#3 26019107#4 26019107#5 26019107#6 26019107#7"/>
    </vehicle>
    <vehicle id="veh18" type="veh_passenger" depart="181.10" departLane="best">
        <route edges="26019107#4 26023104#0 26023104#1 26020237#7 26020242 26020227#2 26020227#3 556017182#0 556017182#1 213669214#0 213669214#1 213669214#2 516899866 1060895818 -26020486#7 -26020486#6 -26020486#5 -26020486#4 -26020486#3 -26020486#2 -26020486#1 -26020486#0 225413502 225413502-AddedOffRampEdge 556018435 26020492#0 26020492#1-AddedOnRampEdge 26020492#1 29081094#1 29081094#2 29081094#3 213669217#0 213669217#1 -26020392#9 -26020392#8 -26020392#7 -26020392#6 -26020392#5 -26020392#4 28959956#0 28959956#1 28959956#2 -819334565#1"/>
    </vehicle>
    <vehicle id="veh20" type="veh_passenger" depart="201.22" departLane="best" departSpeed="max">
        <route edges="26021076 26018633#2 26018633#3 26020675#0 26020842#1"/>
    </vehicle>
    <vehicle id="veh24" type="veh_passenger" depart="241.46" departLane="best" departSpeed="max">
        <route edges="26020392#0 26020392#1 26020392#2 26020392#3 26020392#4 26020392#5 26020392#6 26020392#7 26020392#8 26020392#9 29081103 29081094#5 26020468#0 26020468#1 26020468#2 26020468#3 556018431#0 556018431#1 225413502 225413502-AddedOffRampEdge 26023290#0 26023290#1 26023290#2"/>
    </vehicle>
    <vehicle id="veh25" type="veh_passenger" depart="251.52" departLane="best">
        <route edges="29081536#1 29081348#1 29081348#2 29081348#3 29081348#4 29081348#5 28959956#0 28960843 -28960808#0 819334565#0 28960672"/>
    </vehicle>
    <vehicle id="veh26" type="veh_passenger" depart="261.58" departLane="best" departSpeed="max">
        <route edges="-767692757#1 -767692757#0 26023390 26023318#4 26023318#5 26023318#6 26023313#0 26023313#1 29081391 29081382#2 265399231#1 265399231#2 -26020392#8 -26020392#7 -26020392#6 -26020392#5 -26020392#4"/>
    </vehicle>
    <vehicle id="veh28" type="veh_passenger" depart="281.70" departLane="best">
        <route edges="297182837#4 -297182837#4 -297182837#3 -297182837#2 -297182837#1 -25966399 26019107#0 26019107#1 26019107#2 26019107#3 26019107#4 26019107#5 26019107#6 26019107#7 26019107#8 26019107#9 26019107#10"/>
    </vehicle>
    <vehicle id="veh30" type="veh_passenger" depart="301.83" departLane="best">
        <route edges="355559011#4 355559011#1 355559011#2 26020312#0 26023217 26020266#7 26020266#8 26020237#0 26020237#1 26020237#2 26020237#3 26020237#4 26020237#5 26020237#6 26020237#7 26020237#8 26020237#9"/>
    </vehicle>
    <vehicle id="veh37" type="veh_passenger" depart="372.25" departLane="best" departSpeed="max">
        <route edges="767692772 292084123 -26020486#3 -26020486#2 -26020486#1 -26020486#0 225413502 225413502-AddedOffRampEdge 556018435 26020492#0 26020492#1-AddedOnRampEdge 26020492#1 29081094#1 29081094#2 29081094#3 213669217#0 213669217#1 -26020392#9 -26020392#8 -26020392#7 -26020392#6 -26020392#5 -26020392#4 26020392#4"/>
    </vehicle>
    <vehicle id="veh39" type="veh_passenger" depart="392.37" departLane="best">
        <route edges="-25966399 26019107#0 26019107#1 26019107#2 26019107#3 26019107#4 26023104#0 26023104#1 26020237#7 26020242 26020227#2 26020227#3 556017182#0 556017182#1 213669214#0 213669214#1 213669214#2 516899866 1060895818 1060895819 26023366#0 26023366#1 293305762#0 293305762#1 293305762#2 26023319 375005455 26023318#0 26023318#1 26023318#2 26023318#3 26023318#4 26023318#5 26023318#6"/>
    </vehicle>
    <vehicle id="veh40" type="veh_passenger" depart="402.43" departLane="best">
        <route edges="26023107#1 -26023107#1 -26023107#0 26020237#5 26020237#6 26020237#7 26020242 26020227#2 26020227#3 556017182#0 556017182#1 213669214#0 213669214#1 213669214#2 516899866 1060895818 -26020486#7 -26020486#6 -26020486#5 -26020486#4 -26020486#3 -26020486#2 -26020486#1 -26020486#0 225413502 225413502-AddedOffRampEdge 556018435 26020492#0 26020492#1-AddedOnRampEdge 26020492#1 29081094#1 29081094#2 29081094#3 213669217#0 213669217#1 -26020392#9 26020392#9"/>
    </vehicle>
    <vehicle id="veh43" type="veh_passenger" depart="432.62" departLane="best">
        <route edges="26020237#5 26020237#6 26020237#7 26020242 26020227#2 26020227#3 556017182#0 556017182#1 213669214#0 213669214#1 213669214#2 516899867 555963378"/>
    </vehicle>
    <vehicle id="veh44" type="veh_passenger" depart="442.68" departLane="best">
        <route edges="26020266#7 26023203#0 26023203#1 26023203#2 355559011#4 355559011#1 355559011#2 26020312#0 26020312#1 26020312#2 26020312#3 26020312#5 26020312#6 26020312#7 26020312#8 26020304#0 26020304#1 213669214#0 26022872#0 26022872#1 26022872#2 26018878#0 -297182837#2"/>
    </vehicle>
    <vehicle id="veh46" type="veh_passenger" depart="462.80" departLane="best">
        <route edges="26020486#6 26020486#7 -26020486#7 -26020486#6 -26020486#5 -26020486#4 -26020486#3 -26020486#2 -26020486#1 -26020486#0 225413502 225413502-AddedOffRampEdge 556018435 26020492#0 26020492#1-AddedOnRampEdge 26020492#1 29081094#1 29081094#2 29081094#3 213669217#0 213669217#1 -26020392#9 -26020392#8 -26020392#7 -26020392#6 -26020392#5 -26020392#4 -29081348#5 -29081348#4 -29081348#3"/>
    </vehicle>
    <vehicle id="veh47" type="veh_passenger" depart="472.86" departLane="best" departSpeed="max">
        <route edges="260901073 327178665#0 26022227#1 213669214#2 516899866 1060895818 -26020486#7 -26020486#6 -26020486#5 -26020486#4 -26020486#3 -26020486#2 -26020486#1 -26020486#0 225413502 225413502-AddedOffRampEdge 556018435 26020492#0 26020492#1-AddedOnRampEdge 26020492#1 29081094#1 1040761414 26020464#0"/>
    </vehicle>
    <vehicle id="veh51" type="veh_passenger" depart="513.10" departLane="best">
        <route edges="-26023107#0 26020237#5 26020237#6 26020237#7 26020242 26020227#2 26020227#3 556017182#0 556017182#1 213669214#0 213669214#1 213669214#2 516899866 1060895818 -26020486#7 -26020486#6 -26020486#5 -26020486#4 -26020486#3 -26020486#2 -26020486#1 -26020486#0 225413502 225413502-AddedOffRampEdge 556018435 26020492#0 26020492#1-AddedOnRampEdge 26020492#1 29081094#1 29081094#2 29081094#3 213669217#0 213669217#1 -26020392#9 -26020392#8 -26020392#7 -26020392#6 -26020392#5 -26020392#4 28959956#0"/>
    </vehicle>
    <vehicle id="veh52" type="veh_passenger" depart="523.16" departLane="best">
        <route edges="265399231#1 265399231#2 -26020392#8 -26020392#7 -26020392#6 -26020392#5 -26020392#4 28959956#0 28960843 -28960808#0 819334565#0 819334565#1 28959956#4 28959956#5 28959956#6 28959956#7 28959956#8 -26023366#1"/>
    </vehicle>
    <vehicle id="veh53" type="veh_passenger" depart="533.23" departLane="best">
        <route edges="26020242 26020227#2 26020227#3 556017182#0 556017182#1 213669214#0 213669214#1 213669214#2 516899866 1060895818 -26020486#7 -26020486#6 -26020486#5 -26020486#4 -26020486#3 -26020486#2 -26020486#1 -26020486#0 225413502 225413502-AddedOffRampEdge 556018435 26020492#0 26020492#1-AddedOnRampEdge 26020492#1 29081094#1 29081094#2 29081094#3 29081094#4 29081094#5 26020468#0 26020468#1 26020468#2"/>
    </vehicle>
    <vehicle id="veh55" type="veh_passenger" depart="553.35" departLane="best">
        <route edges="26020227#2 26020227#3 556017182#0 556017182#1 213669214#0 213669214#1 213669214#2 516899866 1060895818 -26020486#7 -26020486#6 -26020486#5 -26020486#4 -26020486#3 -26020486#2 -26020486#1 -26020486#0 225413502 225413502-AddedOffRampEdge 556018435 26020492#0 26020492#1-AddedOnRampEdge 26020492#1 29081094#1 1040761414"/>
    </vehicle>
    <vehicle id="veh56" type="veh_passenger" depart="563.41" departLane="best" departSpeed="max">
        <route edges="26020314#0 26020314#1 355559011#1 355559011#2 26020312#0 26020312#1 26020312#2 26020312#3 26020312#5 26020312#6 26020312#7 26020312#8 26020304#0 26020304#1 213669214#0 213669214#1 213669214#2 26023367"/>
    </vehicle>
    <vehicle id="veh59" type="veh_passenger" depart="593.59" departLane="best">
        <route edges="26018887#0 26018887#1 26019107#0 26019107#1 26019107#2 26019107#3 26019107#4 26023104#0 26023104#1 26020237#7 26020242 26020227#2 26020227#3 556017182#0 556017182#1 213669214#0 213669214#1 213669214#2 516899866 1060895818 -26020486#7 -26020486#6 -26020486#5 -26020486#4 -26020486#3 -26020486#2 -26020486#1 -26020486#0 225413502 225413502-AddedOffRampEdge 556018435 26020492#0 26020492#1-AddedOnRampEdge"/>
    </vehicle>
    <vehicle id="veh63" type="veh_passenger" depart="633.83" departLane="best">
        <route edges="-297182837#4 -297182837#3 -297182837#2 -297182837#1 -25966399 26019107#0 26019107#1 26019107#2 26019107#3 26019107#4 26023104#0 26023104#1 26020237#7 26020242 26020227#2 26020227#3 556017182#0 556017182#1 213669214#0 213669214#1 213669214#2 516899866 1060895818 -26020486#7 -26020486#6 -26020486#5 -26020486#4 -26020486#3 -26020486#2 -26020486#1 -26020486#0 225413502 225413502-AddedOffRampEdge 556018435 26020492#0 26020492#1-AddedOnRampEdge 26020492#1 29081094#1 29081094#2 29081094#3 213669217#0 213669217#1 -26020392#9 -26020392#8 -26020392#7 -26020392#6 -26020392#5 -26020392#4 28959956#0 28960843 -28960808#0 819334565#0 819334565#1 28959956#4 28959908#0 28959908#1 28959908#2 28959908#3 -28959908#3 -28959908#2 -28959908#1"/>
    </vehicle>
    <vehicle id="veh65" type="veh_passenger" depart="653.96" departLane="best">
        <route edges="26020237#9 25966399 -25966399 26019107#0 26019107#1 26019107#2 26019107#3 26019107#4 26023104#0 26023104#1 26020237#7 26020242 26020227#2 26020227#3 556017182#0 556017182#1 213669214#0 213669214#1 213669214#2 516899866 1060895818 -26020486#7 -26020486#6 -26020486#5 -26020486#4 -26020486#3 -26020486#2 -26020486#1 -26020486#0 225413502 225413502-AddedOffRampEdge 556018435 26020492#0 26020492#1-AddedOnRampEdge 26020492#1 29081094#1 29081094#2 29081094#3 213669217#0 213669217#1 -26020392#9 -26020392#8 -26020392#7 -26020392#6 -26020392#5 -26020392#4 28959956#0 28960843 28960808#1"/>
    </vehicle>
    <vehicle id="veh66" type="veh_passenger" depart="664.02" departLane="best" departSpeed="max">
        <route edges="29081348#0 -29081536#1 -29081532#0 29081360#0 -682006396"/>
    </vehicle>
    <vehicle id="veh70" type="veh_passenger" depart="704.26" departLane="best" departSpeed="max">
        <route edges="26019878#0 26019107#0 26019107#1 26019107#2 26019107#3 26019107#4 26019107#5 26019107#6 26019107#7 26019107#8 26019107#9 26019107#10 26019107#11"/>
    </vehicle>
    <vehicle id="veh71" type="veh_passenger" depart="714.32" departLane="best">
        <route edges="292873084#0 292873084#1 -292873084#1 -292873084#0 -26020486#1 -26020486#0 225413502 225413502-AddedOffRampEdge 556018435 26020492#0 26020492#1-AddedOnRampEdge 26020492#1 29081094#1 29081094#2 29081094#3 213669217#0"/>
    </vehicle>
    <vehicle id="veh74" type="veh_passenger" depart="744.50" departLane="best">
        <route edges="819334565#1 28959956#4 28959956#5 28959956#6 28959956#7 28959956#8 293305762#0 293305762#1 293305762#2 26023319 26023308 26023317#0 26023317#1 292084123 -26020486#3 -26020486#2 -26020486#1 -26020486#0 225413502 225413502-AddedOffRampEdge 556018435 26020492#0 26020492#1-AddedOnRampEdge 26020492#1 29081094#1 29081094#2 29081094#3 213669217#0 213669217#1 -26020392#9 -26020392#8 -26020392#7 -26020392#6 -26020392#5 -26020392#4 -29081348#5 -29081348#4 -29081348#3 -29081348#2 -29081348#1 -29081536#1 29081536#1"/>
    </vehicle>
    <vehicle id="veh77" type="veh_passenger" depart="774.69" departLane="best">
        <route edges="26020266#2 26020266#3 26023226 26020312#6 26020312#7 26020312#8 26020304#0 26020304#1 213669214#0 213669214#1 213669214#2 516899867 26020493 -1060895816#0 1060895817"/>
    </vehicle>
    <vehicle id="veh78" type="veh_passenger" depart="784.75" departLane="best" departSpeed="max">
        <route edges="26019878#0 26020227#0 26020227#1 26020227#2 26020227#3 556017182#0 556017182#1 213669214#0 213669214#1 213669214#2 516899866 1060895818 -26020486#7 -26020486#6 -26020486#5 -26020486#4"/>
    </vehicle>
    <vehicle id="veh80" type="veh_passenger" depart="804.87" departLane="best">
        <route edges="213669214#0 213669214#1 213669214#2 516899866 1060895818 -26020486#7 -26020486#6 -26020486#5 -26020486#4 -26020486#3 -26020486#2 -26020486#1 -26020486#0 225413502 225413502-AddedOffRampEdge 556018435 26020492#0 26020492#1-AddedOnRampEdge 26020492#1 29081094#1 29081094#2 29081094#3 213669217#0 213669217#1 -26020392#9 -26020392#8 -26020392#7 -26020392#6 -26020392#5 -26020392#4 28959956#0 28960843 28960808#1"/>
    </vehicle>
    <vehicle id="veh81" type="veh_passenger" depart="814.93" departLane="best" departSpeed="max">
        <route edges="26020392#0 26020392#1 26020392#2 26020392#3 26020392#4 26020392#5 26020392#6 26020392#7 26020392#8 26020392#9 29081103 29081094#5 26020468#0 26020468#1 26022376 26023390 26023318#4 26023318#5"/>
    </vehicle>
    <vehicle id="veh83" type="veh_passenger" depart="835.05" departLane="best" departSpeed="max">
        <route edges="556022792#0 556022792#1 26022227#0 26022227#1 213669214#2 516899866 1060895818 -26020486#7 -26020486#6 -26020486#5 -26020486#4 -26020486#3 -26020486#2 -26020486#1 -26020486#0 225413502 225413502-AddedOffRampEdge 556018435 26020492#0"/>
    </vehicle>
    <vehicle id="veh84" type="veh_passenger" depart="845.11" departLane="best" departSpeed="max">
        <route edges="26020314#0 26020314#1 355559011#1 355559011#2 26020312#0 26020312#1 26020312#2 26020312#3 26020312#5 26020312#6 26020312#7 26020312#8 26020304#0 26020304#1 213669214#0 213669214#1 213669214#2 516899866 1060895818 -26020486#7 -26020486#6 -26020486#5 -26020486#4 -26020486#3 -26020486#2 -26020486#1 -26020486#0 225413502 225413502-AddedOffRampEdge 556018435 26020492#0 26020492#1-AddedOnRampEdge 26020492#1 29081094#1 29081094#2 29081094#3 213669217#0 213669217#1 -26020392#9 -26020392#8 -26020392#7 -26020392#6 -26020392#5 -26020392#4 28959956#0 28960843 -28960808#0 819334565#0 819334565#1 28959956#4 28959908#0"/>
    </vehicle>
    <vehicle id="veh85" type="veh_passenger" depart="855.17" departLane="best">
        <route edges="26020266#8 26020237#0 26020237#1 26020237#2 26020237#3 26020237#4 26020237#5 26020237#6 26020237#7 26020242 26020227#2 26020227#3 556017182#0 556017182#1 213669214#0 213669214#1 213669214#2 516899866 1060895818 -26020486#7 -26020486#6 -26020486#5 -26020486#4 -26020486#3 -26020486#2 292873084#0 292873084#1"/>
    </vehicle>
    <vehicle id="veh86" type="veh_passenger" depart="865.23" departLane="best" departSpeed="max">
        <route edges="-26023264 26020312#5 26020312#6 26020312#7 26020312#8 26020304#0 26020304#1 213669214#0 213669214#1 213669214#2 516899866 1060895818 -26020486#7 -26020486#6 -26020486#5 -26020486#4 -26020486#3 -26020486#2 -26020486#1 -26020486#0 225413502 225413502-AddedOffRampEdge 556018435 26020492#0 26020492#1-AddedOnRampEdge 26020492#1 29081094#1 29081094#2 29081094#3 213669217#0 213669217#1 -26020392#9 -26020392#8 -26020392#7 -26020392#6 -26020392#5 -26020392#4 -29081348#5 -29081348#4 -29081348#3 -29081348#2 -29081348#1 -29081536#1 -29081532#0 29081360#0 -682006396"/>
    </vehicle>
    <vehicle id="veh88" type="veh_passenger" depart="885.36" departLane="best">
        <route edges="26020486#2 26020486#3 26020486#4 26020486#5 26020486#6 26020486#7 1060895817 -26022704#1 26022704#1"/>
    </vehicle>
    <vehicle id="veh89" type="veh_passenger" depart="895.42" departLane="best">
        <route edges="26020227#1 26020227#2 26020227#3 556017182#0 556017182#1 213669214#0 213669214#1 213669214#2 516899866 1060895818 -26020486#7 -26020486#6 -26020486#5 -26020486#4 -26020486#3 -26020486#2 -26020486#1 -26020486#0 225413502 225413502-AddedOffRampEdge 556018435 26020492#0 26020492#1-AddedOnRampEdge 26020492#1"/>
    </vehicle>
    <vehicle id="veh90" type="veh_passenger" depart="905.48" departLane="best" departSpeed="max">
        <route edges="-292873084#1 -292873084#0 26020486#2 26020486#3 26020486#4 26020486#5 26020486#6 26020486#7 1060895819 26023366#0 26023366#1 293305762#0 293305762#1 293305762#2 26023319 375005455 26023318#0 26023318#1 26023318#2 26023318#3"/>
    </vehicle>
    <vehicle id="veh92" type="veh_passenger" depart="925.60" departLane="best" departSpeed="max">
        <route edges="26018633#0 26018633#2 26018633#3 26018633#4 26018887#0 26018887#1 26019107#0 26019107#1 26019107#2 26019107#3 26019107#4 26023104#0 26023104#1 26020237#7 26020242 26020227#2 26020227#3 556017182#0 556017182#1 213669214#0 213669214#1 213669214#2 516899866 1060895818 -26020486#7 -26020486#6 -26020486#5 -26020486#4 -26020486#3 -26020486#2 -26020486#1 -26020486#0 225413502 225413502-AddedOffRampEdge 556018435 26020492#0 26020492#1-AddedOnRampEdge 26020492#1 29081094#1 29081094#2 29081094#3 213669217#0 213669217#1 -26020392#9 -26020392#8 -26020392#7 -26020392#6 -26020392#5 -26020392#4 28959956#0 28960843 -28960808#0 819334565#0 819334565#1 28959956#4 28959908#0 28959908#1 28959908#2 28959908#3"/>
    </vehicle>
    <vehicle id="veh93" type="veh_passenger" depart="935.66" departLane="best">
        <route edges="819334565#0 819334565#1 28959956#4 28959956#5 28959956#6 28959956#7 28959956#8 293305762#0 293305762#1 293305762#2 26023319 26023308 26023317#0 26023317#1 292084123 -26020486#3 -26020486#2 -26020486#1 -26020486#0 225413502 225413502-AddedOffRampEdge 556018435 26020492#0 26020492#1-AddedOnRampEdge 26020492#1 29081094#1 29081094#2 29081094#3 29081094#4 29081094#5 26020468#0 26020468#1 26022376 767692757#0 767692757#1"/>
    </vehicle>
    <vehicle id="veh94" type="veh_passenger" depart="945.72" departLane="best">
        <route edges="-26023111#0 26020237#4 26020237#5 26020237#6 26020237#7 26020242 26020227#2 26020227#3 556017182#0 556017182#1 213669214#0 213669214#1 213669214#2 516899867 26020493 -1060895816#0 1060895817"/>
    </vehicle>
    <vehicle id="veh95" type="veh_passenger" depart="955.78" departLane="best">
        <route edges="213669214#0 26022872#0 26022872#1 26022872#2 26018887#0 26018887#1 26019107#0 26019107#1 26019107#2 26019107#3 26019107#4 26023104#0 26023104#1 26020237#7 26020242 26020227#2 26020227#3 26020266#0 26020266#1 26020266#2 26020266#3 26020266#4 26020266#5 26020266#6 26020266#7 26023203#0 26023203#1 26023203#2 355559011#4 355559011#1"/>
    </vehicle>
    <vehicle id="veh96" type="veh_passenger" depart="965.84" departLane="best">
        <route edges="26019107#4 26023104#0 26023104#1 26020237#7 26020242 26020227#2 26020227#3 556017182#0 556017182#1 213669214#0 213669214#1 213669214#2 516899866 1060895818 -26020486#7 -26020486#6 -26020486#5 -26020486#4 -26020486#3 -26020486#2 -26020486#1 -26020486#0 225413502 225413502-AddedOffRampEdge 556018435 26020492#0 26020492#1-AddedOnRampEdge 26020492#1 29081094#1 29081094#2 29081094#3 213669217#0 213669217#1 -26020392#9 -26020392#8 -26020392#7 -26020392#6 -26020392#5 -26020392#4 -29081348#5 -29081348#4 -29081348#3 -29081348#2 -29081348#1 -29081536#1 -29081532#0"/>
    </vehicle>
    <vehicle id="veh97" type="veh_passenger" depart="975.90" departLane="best" departSpeed="max">
        <route edges="29081532#0 29081536#1 29081348#1 29081348#2 29081348#3 29081348#4 29081348#5 28959956#0 28960843 -28960808#0 819334565#0 819334565#1 28959956#4 28959956#5 28959956#6 28959956#7 28959956#8 293305762#0 293305762#1 293305762#2 26023319 26023308"/>
    </vehicle>
    <vehicle id="veh99" type="veh_passenger" depart="996.03" departLane="best" departSpeed="max">
        <route edges="26021076 26018633#2 26018633#3 26018633#4 26018887#0 26018887#1 26019107#0 26019107#1 26019107#2 26019107#3 26019107#4 26023104#0 26023104#1 26020237#7 26020242 26020227#2 26020227#3 556017182#0 556017182#1 213669214#0 213669214#1 213669214#2 516899866 -26022704#0 -1317046063"/>
    </vehicle>
    <vehicle id="veh106" type="veh_passenger" depart="1066.45" departLane="best">
        <route edges="-26023111#1 -26023111#0 26020237#4 26020237#5 26020237#6 26020237#7 26020237#8 26020237#9 25966399 297182837#0 297182837#2 297182837#3"/>
    </vehicle>
    <vehicle id="veh108" type="veh_passenger" depart="1086.57" departLane="best" departSpeed="max">
        <route edges="29081532#0 -29081532#0 29081360#0 29081360#1 29081360#2 29081360#3 265399231#0 265399231#1 265399231#2 26020392#9 29081103 29081094#5 26020468#0 26020468#1 26020468#2 26020468#3 556018431#0 556018431#1 225413502 225413502-AddedOffRampEdge 556018435 26020492#0 26020492#1-AddedOnRampEdge 26020492#1"/>
    </vehicle>
    <vehicle id="veh113" type="veh_passenger" depart="1136.88" departLane="best" departSpeed="max">
        <route edges="26019878#0 26020227#0 26020227#1 26020227#2 26020227#3 556017182#0 556017182#1 213669214#0 26022872#0"/>
    </vehicle>
    <vehicle id="veh115" type="veh_passenger" depart="1157.00" departLane="best">
        <route edges="293305762#1 293305762#2 26023319 26023308 26023317#0 26023317#1 292084123 -26020486#3 -26020486#2 -26020486#1 -26020486#0 225413502 225413502-AddedOffRampEdge 556018435 26020475 556018431#0"/>
    </vehicle>
    <vehicle id="veh120" type="veh_passenger" depart="1207.30" departLane="best">
        <route edges="28960017#1 293305762#1 293305762#2 26023319 26023308 26023317#0 26023317#1 292084123 -26020486#3 -26020486#2 -26020486#1 -26020486#0 225413502 225413502-AddedOffRampEdge 556018435 26020492#0 26020492#1-AddedOnRampEdge 26020492#1 29081094#1 1040761414 26020464#0 29169773#0 29169773#1 -26023300#0"/>
    </vehicle>
    <vehicle id="veh121" type="veh_passenger" depart="1217.36" departLane="best">
        <route edges="297182837#2 -297182837#2 -297182837#1 -25966399 26019107#0 26019107#1 26019107#2 26019107#3 26019107#4 26023104#0 26023104#1 26020237#7 26020242 26020227#2 26020227#3 556017182#0 556017182#1 213669214#0 213669214#1 213669214#2 516899866 1060895818 1060895819 26023366#0 26023366#1 293305762#0 293305762#1 293305762#2"/>
    </vehicle>
    <vehicle id="veh122" type="veh_passenger" depart="1227.43" departLane="best" departSpeed="max">
        <route edges="-297182837#5 -297182837#4 -297182837#3 -297182837#2 -297182837#1 -25966399 26019107#0 26019107#1 26019107#2 26019107#3 26019107#4 26023104#0 26023104#1 26020237#7 26020242 26020227#2 26020227#3 556017182#0 556017182#1 213669214#0 213669214#1 213669214#2 516899866 1060895818 -26020486#7 -26020486#6 -26020486#5 -26020486#4 -26020486#3 -26020486#2 -26020486#1 -26020486#0 225413502 225413502-AddedOffRampEdge 556018435 26020492#0 26020492#1-AddedOnRampEdge 26020492#1 29081094#1 29081094#2 29081094#3 213669217#0 213669217#1 -26020392#9 -26020392#8 -26020392#7 -26020392#6 -26020392#5 -26020392#4 -29081348#5 -29081348#4 -29081348#3 -29081348#2 29081348#2"/>
    </vehicle>
    <vehicle id="veh127" type="veh_passenger" depart="1277.73" departLane="best">
        <route edges="516899866 1060895818 1060895819 26023366#0 26023366#1 293305762#0 293305762#1 293305762#2 26023319 375005455 26023318#0 26023318#1 26023318#2 26023318#3 26023318#4 26023318#5 26023318#6 26023313#0 26023313#1 -26023313#1 -26023313#0"/>
    </vehicle>
    <vehicle id="veh130" type="veh_passenger" depart="1307.91" departLane="best">
        <route edges="26019107#7 -26023111#1 -26023111#0 26020237#4 26020237#5 26020237#6 26020237#7 26020242 26020227#2 26020227#3 556017182#0 556017182#1 213669214#0 213669214#1 213669214#2 516899866 1060895818 -26020486#7 -26020486#6 -26020486#5 26020486#5 26020486#6 26020486#7"/>
    </vehicle>
    <vehicle id="veh131" type="veh_passenger" depart="1317.97" departLane="best" departSpeed="max">