<?xml version="1.0" encoding="UTF-8"?>

<!-- generated on 2025-03-18 01:12:49 by Eclipse SUMO polyconvert Version 1.22.0
<polyconvertConfiguration xmlns:xsi="http://www.w3.org/2001/XMLSchema-instance" xsi:noNamespaceSchemaLocation="http://sumo.dlr.de/xsd/polyconvertConfiguration.xsd">

    <input>
        <net-file value="osm.net.xml"/>
        <osm-files value="osm_bbox.osm.xml"/>
        <osm.keep-full-type value="true"/>
        <type-file value="C:\Program%20Files%20(x86)\Eclipse\Sumo\data\typemap\osmPolyconvert.typ.xml"/>
    </input>

    <output>
        <output-file value="osm.poly.xml"/>
    </output>

    <report>
        <verbose value="true"/>
    </report>

</polyconvertConfiguration>
-->

<additional xmlns:xsi="http://www.w3.org/2001/XMLSchema-instance" xsi:noNamespaceSchemaLocation="http://sumo.dlr.de/xsd/additional_file.xsd">
    <location netOffset="-390301.53,-5819236.69" convBoundary="-1313.36,-3855.83,3675.79,4022.50" origBoundary="13.365446,52.477280,13.436728,52.548335" projParameter="+proj=utm +zone=33 +ellps=WGS84 +datum=WGS84 +units=m +no_defs"/>

    <poly id="100575042" type="building.residential" color="255,230,230" fill="1" layer="-1.00" shape="1010.210262,1428.576204 1015.820793,1406.452341 1010.080346,1404.988504 1009.465158,1407.238814 1009.909559,1407.384736 1008.532306,1412.912358 1008.959199,1413.492647 1008.258390,1414.331647 1006.959602,1413.915371 1007.097488,1413.400440 1003.308556,1412.405164 1003.169319,1413.164934 1001.435382,1412.713809 1001.242827,1411.683213 1002.137906,1411.340642 1003.408588,1405.904406 1004.125575,1406.099915 1004.756173,1403.626710 998.831322,1402.111342 996.710759,1410.537525 993.294494,1424.189080 1001.561203,1426.331240 1010.210262,1428.576204"/>
    <poly id="100950874" type="building.commercial" color="255,230,230" fill="1" layer="-1.00" shape="1346.770370,1091.306199 1327.011021,1083.598021 1323.316371,1073.375624 1334.395759,1054.146759 1346.029417,1059.965015 1347.291323,1061.472703 1347.953967,1063.505521 1346.770370,1091.306199"/>
    <poly id="100950876" type="building.office" color="255,230,230" fill="1" layer="-1.00" shape="1385.320252,1034.081005 1373.203455,1057.972901 1371.339284,1100.732987 1371.480233,1103.422748 1372.286099,1107.021392 1373.565520,1110.242349 1375.521247,1113.659772 1378.158481,1116.895206 1383.153956,1120.879668 1386.331180,1122.445151 1406.143318,1130.096755 1439.049876,1058.909257 1417.027335,1047.689919 1387.055033,1032.418008 1386.358466,1032.533562 1385.922512,1033.077329 1385.320252,1034.081005"/>
    <poly id="100950877" type="building.office" color="255,230,230" fill="1" layer="-1.00" shape="1416.978103,1069.100499 1397.283627,1110.975175 1391.031735,1108.798902 1388.355302,1107.166701 1386.751583,1104.320124 1385.700629,1098.846335 1387.409909,1067.183899 1412.810749,1067.267572 1416.978103,1069.100499"/>
    <poly id="100950878" type="building.commercial" color="255,230,230" fill="1" layer="-1.00" shape="1355.763269,1110.302344 1360.752379,1096.816593 1362.238148,1064.569324 1362.126371,1060.743903 1360.880572,1055.975468 1358.393956,1051.879884 1354.441305,1048.094925 1350.491743,1046.290614 1329.001688,1034.915223 1309.747291,1069.046846 1307.974102,1075.106126 1308.108157,1080.856130 1309.799703,1087.361721 1316.654201,1094.988209 1355.763269,1110.302344"/>
    <poly id="1014046275" type="building.yes" color="255,230,230" fill="1" layer="-1.00" shape="1042.589253,412.751448 1046.492802,414.289489 1054.245366,417.355663 1057.971014,418.830893 1060.639329,412.117400 1057.728756,410.969045 1065.894487,390.424412 1055.601155,386.357450 1047.428427,406.891129 1045.257551,406.037947 1042.589253,412.751448"/>
    <poly id="1024034687" type="traffic_sign.DE:244.1,1020-30" color="black" fill="0" layer="0.00" shape="1687.790260,1341.276049 1688.246676,1342.890608 1696.672834,1372.582300 1698.924317,1380.499987 1704.605386,1400.515606 1712.008712,1426.613417 1713.333535,1431.291166 1722.097710,1462.166092 1728.375171,1484.305078 1735.652892,1509.949458 1738.633220,1520.454944 1752.349609,1568.791174 1754.189176,1575.271379 1755.454999,1579.739014 1756.852977,1584.659967"/>
    <poly id="1025206459" type="amenity.fountain" color="237,199,199" fill="1" layer="-1.00" shape="557.519276,604.471324 558.723296,605.802068 560.251101,606.736130 561.980810,607.287354 563.654103,607.439240 565.367456,607.256403 567.031921,606.707445 568.463069,605.740834 569.413328,604.517875 569.912069,603.138061 569.980884,601.656550 569.498388,600.109429 568.593152,598.783152 567.205599,597.745814 565.417147,596.995599 563.375980,596.785144 561.336453,596.952993 559.254543,597.655915 557.968603,598.741697 557.169100,600.028065 556.759806,601.461525 556.952042,603.081879 557.519276,604.471324"/>
    <poly id="1025206459#1" type="landuse.grass" color="194,194,130" fill="1" layer="-3.00" shape="557.519276,604.471324 558.723296,605.802068 560.251101,606.736130 561.980810,607.287354 563.654103,607.439240 565.367456,607.256403 567.031921,606.707445 568.463069,605.740834 569.413328,604.517875 569.912069,603.138061 569.980884,601.656550 569.498388,600.109429 568.593152,598.783152 567.205599,597.745814 565.417147,596.995599 563.375980,596.785144 561.336453,596.952993 559.254543,597.655915 557.968603,598.741697 557.169100,600.028065 556.759806,601.461525 556.952042,603.081879 557.519276,604.471324"/>
    <poly id="1027050440" type="leisure.park" color="207,245,201" fill="1" layer="-2.00" shape="703.982002,771.607474 667.180837,769.321990 660.840906,862.011800 686.116664,864.041869 687.556007,845.148466 688.738993,845.233411 690.256103,826.783386 698.757814,826.927994 703.982002,771.607474"/>
    <poly id="1034000623" type="amenity.waste_disposal" color="237,199,199" fill="1" layer="-1.00" shape="1495.895252,1386.339724 1493.215958,1382.726824 1490.684719,1384.585430 1493.371044,1388.209301 1495.895252,1386.339724"/>
    <poly id="1034000624" type="amenity.parking" color="184,184,179" fill="1" layer="-1.00" shape="1493.371044,1388.209301 1488.552790,1391.921117 1491.063619,1395.281803 1473.332163,1408.937765 1467.365240,1403.361192 1454.661559,1409.272565 1451.034722,1410.999626 1444.559144,1394.696192 1462.936889,1387.557739 1474.617315,1381.101498 1482.785634,1376.035958 1493.371044,1388.209301"/>
    <poly id="1043377446" type="natural.scrub" color="140,196,107" fill="1" layer="-4.00" shape="1299.580046,1005.900187 1296.606404,1011.696724 1315.354260,1021.530293 1318.470773,1015.441288 1299.580046,1005.900187"/>
    <poly id="1043377447" type="natural.scrub" color="140,196,107" fill="1" layer="-4.00" shape="1288.594745,1017.727190 1278.047383,1038.602395 1301.027266,1049.510613 1313.838259,1024.490404 1295.071042,1014.701780 1292.442206,1019.823031 1288.594745,1017.727190"/>
    <poly id="1043377448" type="natural.scrub" color="140,196,107" fill="1" layer="-4.00" shape="1275.035957,1052.500680 1271.928598,1050.722295 1276.233369,1042.203390 1299.270606,1052.943415 1286.967516,1076.984324 1267.753416,1067.239085 1275.035957,1052.500680"/>
    <poly id="1043377453" type="landuse.grass" color="194,194,130" fill="1" layer="-3.00" shape="1434.911597,965.974072 1441.272959,962.962529 1450.694522,958.982018 1457.428111,956.841348 1462.957576,955.806677 1474.237198,955.123424 1466.783234,949.546316 1469.881788,945.705587 1462.802816,939.897645 1461.954324,939.282125 1460.399516,938.648833 1458.726865,938.518887 1457.273872,938.806935 1455.944572,939.470588 1455.164810,940.122095 1454.510116,940.904369 1435.856228,962.648294 1435.151645,964.243988 1434.911597,965.974072"/>
    <poly id="1043377454" type="landuse.grass" color="194,194,130" fill="1" layer="-3.00" shape="1436.384858,969.980818 1461.132353,997.297287 1463.798984,993.877819 1471.493407,984.538637 1474.952596,979.510416 1478.178615,974.988091 1481.020006,967.803647 1482.734994,963.092164 1480.501273,960.916005 1479.252165,959.986635 1477.457357,958.935793 1475.947934,958.512917 1474.116055,958.241826 1469.299148,958.348275 1466.257240,958.916243 1456.194047,960.585239 1439.134084,967.227167 1436.384858,969.980818"/>
    <poly id="1043377455" type="landuse.grass" color="194,194,130" fill="1" layer="-3.00" shape="1464.927099,997.625139 1465.726912,997.574080 1500.877367,964.271425 1498.696306,962.327774 1495.438377,963.256578 1489.530518,963.754322 1483.771741,970.691653 1481.959128,973.135265 1476.423956,982.204160 1470.214946,989.652199 1464.953450,996.667584 1464.927099,997.625139"/>
    <poly id="1044472586" type="landuse.grass" color="194,194,130" fill="1" layer="-3.00" shape="1018.194049,1258.646977 1017.713375,1258.702156 1017.168683,1258.625224 1016.666541,1258.324795 1016.410589,1257.495903 1015.442038,1254.223621 1015.219511,1253.371732 1015.260206,1252.758809 1015.661192,1252.171273 1016.517199,1251.595893 1023.204060,1247.986796 1029.962713,1243.942137 1036.418686,1239.715035 1041.008214,1236.408439 1041.843260,1236.111719 1042.740722,1236.180827 1043.598840,1236.618019 1044.407254,1237.568185 1051.464685,1252.189086 1051.615171,1252.853405 1051.558929,1253.377651 1051.287453,1254.296140 1050.770395,1254.852866 1050.089535,1255.368715 1049.331704,1255.474550 1018.194049,1258.646977"/>
    <poly id="104786904" type="landuse.grass" color="194,194,130" fill="1" layer="-3.00" shape="709.382836,731.539038 714.881019,668.690162 692.934023,666.819505 687.684382,728.928459 709.382836,731.539038"/>
    <poly id="104786906" type="building.yes" color="255,230,230" fill="1" layer="-1.00" shape="721.279372,835.128626 784.603616,846.717064 777.598968,856.809827 773.911052,861.598840 769.437803,867.395684 767.531254,869.875043 753.432716,868.953478 742.053173,868.205143 742.653936,861.036702 764.161131,862.705908 765.491583,855.688156 725.632808,848.963569 724.115980,850.043319 722.266913,859.376047 723.297751,860.554895 723.096135,861.560870 722.249699,861.958044 722.028480,866.658833 718.541341,866.435982 715.237384,866.209057 715.638632,864.108130 719.497303,844.726927 721.106148,834.665119 721.279372,835.128626"/>
    <poly id="104786907" type="building.residential" color="255,230,230" fill="1" layer="-1.00" shape="750.052308,816.773263 748.777129,829.631803 709.087191,822.269311 712.185836,790.085970 725.813896,791.207062 727.009904,777.537959 740.317631,778.599455 739.180341,790.943058 731.362541,790.115502 730.077831,803.764322 737.973314,804.423232 737.512180,809.630101 737.047519,815.593728 750.052308,816.773263"/>
    <poly id="104786910" type="building.yes" color="255,230,230" fill="1" layer="-1.00" shape="827.765663,843.565247 840.437105,827.003849 824.341510,814.420191 825.047433,813.503159 824.266929,812.897362 827.341272,808.900964 828.052447,809.441537 828.995942,808.218779 832.952986,811.257684 833.711706,810.272715 850.493162,823.174989 857.752771,813.855606 867.806549,816.948222 847.636364,843.067928 840.148261,852.793002 827.765663,843.565247"/>
    <poly id="104786915" type="building.yes" color="255,230,230" fill="1" layer="-1.00" shape="825.278238,836.710280 811.750559,834.295878 810.633646,840.541060 824.136149,843.045039 825.278238,836.710280"/>
    <poly id="104786916" type="building.office" color="255,230,230" fill="1" layer="-1.00" shape="853.571704,768.970628 848.731520,786.058969 886.812191,797.063699 891.613125,783.092009 888.947959,781.982818 886.393661,780.058849 883.691447,777.893359 879.991664,776.350928 865.680964,772.306881 853.571704,768.970628"/>
    <poly id="1048127662" type="landuse.religious" color="194,194,130" fill="1" layer="-3.00" shape="1200.084756,680.106124 1150.218235,762.442598 1166.016778,771.150348 1212.559933,796.803163 1216.282980,792.047101 1220.536584,795.001849 1245.933822,759.298417 1258.017094,733.882484 1266.101866,713.351104 1200.084756,680.106124"/>
    <poly id="104991245" type="building.office" color="255,230,230" fill="1" layer="-1.00" shape="732.697948,1152.146051 745.500921,1147.955379 747.371383,1153.622248 747.809381,1153.478972 753.240748,1170.016227 754.076284,1169.741703 758.218997,1182.357316 757.343005,1182.643867 762.795902,1199.236291 749.049472,1203.726104 746.254351,1195.242256 745.668097,1195.433342 742.755760,1186.562636 743.355335,1186.360126 739.751482,1175.390554 739.205683,1175.569613 736.322688,1166.798406 736.935834,1166.595593 735.515676,1162.254026 734.147459,1158.111602 734.612345,1157.956598 732.697948,1152.146051"/>
    <poly id="104991246" type="building.yes" color="255,230,230" fill="1" layer="-1.00" shape="634.426292,1196.529802 633.202595,1192.784779 650.243684,1186.897079 651.523127,1190.707630 634.426292,1196.529802"/>
    <poly id="1051150923" type="landuse.grass" color="194,194,130" fill="1" layer="-3.00" shape="1586.094175,654.511672 1588.211991,653.585846 1586.742435,648.822300 1584.121021,644.462518 1579.822124,640.373446 1568.452353,632.701611 1551.236912,620.986032 1521.628093,601.365452 1511.513226,594.890061 1510.011311,594.811960 1508.407074,595.325882 1507.243949,596.141632 1499.888335,606.407960 1501.392818,609.368044 1508.213844,614.235906 1513.944954,619.239127 1518.144059,624.031386 1522.690691,629.806327 1526.624772,634.893762 1526.984554,635.508961 1527.855773,635.000106 1531.057669,640.437543 1530.193235,640.946247 1531.633248,643.139960 1535.206210,647.245023 1538.999256,649.943154 1542.598547,652.167080 1547.456768,653.918106 1551.783870,654.979827 1554.406239,655.077710 1560.778970,655.326469 1569.729186,655.484950 1576.922786,655.404036 1581.658170,655.588819 1584.762325,655.064067 1586.094175,654.511672"/>
    <poly id="1051150924" type="landuse.grass" color="194,194,130" fill="1" layer="-3.00" shape="1487.942617,620.915168 1490.359822,622.786836 1492.670924,624.772125 1494.743327,626.707050 1496.736522,628.743874 1498.796675,631.046282 1500.882341,633.581806 1510.145551,636.537415 1518.144072,639.398571 1526.493309,643.387008 1527.585663,643.362882 1528.168082,642.993937 1528.111008,642.561222 1525.731521,638.707995 1521.757892,631.829893 1516.893602,626.117607 1511.132531,619.757480 1507.191957,616.528505 1501.080734,611.834133 1499.472534,611.246515 1497.737482,611.062292 1496.420728,611.069126 1487.942617,620.915168"/>
    <poly id="1051150925" type="landuse.grass" color="194,194,130" fill="1" layer="-3.00" shape="1493.676183,608.514777 1485.432634,619.145700 1482.844180,617.511497 1478.892269,615.306532 1475.805173,613.839137 1471.777340,612.192234 1468.050348,610.950407 1463.305132,609.708829 1459.964575,609.059358 1456.471652,608.580170 1453.193484,608.296535 1449.898648,608.180184 1446.288610,608.237716 1442.764415,608.493650 1439.264755,608.938213 1436.438517,609.445786 1433.621769,610.075555 1430.437017,610.947139 1427.208952,612.008851 1425.014545,612.847419 1422.841969,613.752271 1422.156992,613.166524 1421.735394,612.519317 1423.748500,604.707759 1425.856251,595.035804 1426.802971,589.651380 1427.743203,583.666210 1428.608652,576.447532 1429.563241,568.347804 1430.830235,559.640282 1432.111947,559.890140 1434.031542,560.437471 1436.514728,561.606618 1439.438343,563.967810 1448.260255,570.905609 1461.044758,580.838194 1474.750917,591.317952 1489.616629,602.973907 1491.896519,605.082289 1493.676183,608.514777"/>
    <poly id="1051150926" type="landuse.grass" color="194,194,130" fill="1" layer="-3.00" shape="1432.653012,553.657861 1432.112968,551.644578 1432.108687,549.608325 1432.455602,547.797988 1433.191963,546.101446 1433.997945,545.404848 1435.170659,545.022844 1436.148184,545.023493 1439.201362,547.103632 1463.440011,562.669560 1502.438726,588.803428 1503.827586,590.831350 1503.880786,594.468893 1502.059698,597.457930 1497.411895,603.391455 1495.946268,603.112261 1493.182426,602.450027 1492.076302,601.851319 1483.202837,594.725415 1483.942101,593.774365 1479.010458,589.933036 1478.271193,590.884087 1464.979016,580.706743 1465.586023,579.914399 1460.380005,575.945620 1459.772999,576.737965 1446.418058,566.795735 1447.255653,565.686720 1442.070943,561.761999 1441.233103,562.859893 1434.614108,556.696854 1433.182632,554.892444 1432.653012,553.657861"/>
    <poly id="1051150927" type="landuse.grass" color="194,194,130" fill="1" layer="-3.00" shape="1419.762928,725.029443 1433.370610,703.430422 1435.908250,704.609490 1438.488218,705.553944 1442.413773,706.568806 1446.349111,707.104968 1449.819792,707.195172 1453.871404,706.849692 1457.999910,705.990646 1462.190023,704.540481 1466.131121,702.572825 1471.980362,708.930951 1478.929527,718.680947 1480.898536,723.311025 1476.752874,725.850696 1473.144636,727.521671 1468.646965,729.490493 1464.343648,730.731732 1459.999034,731.640059 1454.617742,732.326494 1448.313635,732.721760 1438.779130,731.919893 1431.844580,730.203746 1426.294495,728.167686 1419.762928,725.029443"/>
    <poly id="1051150928" type="landuse.grass" color="194,194,130" fill="1" layer="-3.00" shape="1389.230042,666.383380 1397.882849,655.854510 1399.323078,654.064505 1400.736472,653.209811 1402.591225,652.668059 1404.696828,653.033223 1405.893367,653.730060 1417.072647,661.372354 1415.845166,665.416551 1415.162581,669.237276 1414.941518,674.282961 1415.236580,677.803883 1415.987058,681.659691 1417.485042,686.166629 1418.831537,689.041161 1421.057152,692.686316 1423.292444,695.541200 1425.675178,698.003360 1428.897348,700.669516 1415.170603,722.716286 1411.456251,719.894107 1407.499657,716.554291 1403.597768,712.311933 1399.944594,707.652357 1396.763435,702.236799 1393.956168,696.846356 1391.781004,691.186003 1390.285685,685.265810 1389.328861,678.832967 1389.010787,672.430509 1389.230042,666.383380"/>
    <poly id="1051150930" type="landuse.grass" color="194,194,130" fill="1" layer="-3.00" shape="1333.341094,682.530595 1326.164813,697.811779 1327.154764,704.510942 1327.951356,705.539310 1328.869861,705.941835 1331.332717,705.887342 1333.355868,706.821806 1363.891627,683.946735 1367.914939,680.786529 1375.731121,672.946745 1375.513065,672.295040 1374.943327,671.395178 1373.571058,669.812028 1372.598907,669.132491 1371.176111,668.640963 1369.573078,668.286952 1364.250367,668.248896 1360.942800,669.089861 1358.418682,670.058157 1354.353958,672.573886 1350.430413,676.254893 1347.234499,679.074109 1344.120287,681.290630 1340.537720,682.894369 1337.359113,683.120480 1334.530255,682.893750 1333.341094,682.530595"/>
    <poly id="1051150931" type="natural.scrub" color="140,196,107" fill="1" layer="-4.00" shape="1339.502865,670.176170 1343.181107,663.384855 1344.184234,663.930170 1346.976908,658.838716 1345.973534,658.282279 1347.141509,656.153325 1348.131068,656.698941 1350.852070,651.742607 1349.862511,651.196990 1350.867266,649.360966 1352.172863,650.077633 1354.985171,644.952368 1353.679572,644.235700 1354.703947,642.365860 1355.562874,642.836474 1358.414668,637.654699 1357.555741,637.184085 1358.463792,635.272308 1360.746381,634.431759 1363.827947,635.954843 1366.390524,637.645194 1368.677771,639.163595 1372.695722,643.125171 1371.861744,644.089461 1370.905561,646.280489 1369.493955,648.136636 1368.070154,649.748245 1366.956279,650.640834 1366.144420,651.070512 1364.143887,651.159271 1358.384147,652.232519 1356.953358,653.221141 1354.137884,659.737425 1351.435978,663.102089 1349.421903,666.874387 1348.311973,667.944935 1346.294956,669.436143 1344.850500,670.113499 1343.308492,670.370165 1339.502865,670.176170"/>
    <poly id="1051150932" type="man_made.embankment" color="255,230,230" fill="0" layer="-1.00" shape="1336.757207,675.244333 1339.502865,670.176170 1343.181107,663.384855 1344.184234,663.930170 1346.976908,658.838716 1345.973534,658.282279 1347.141509,656.153325 1348.131068,656.698941 1350.852070,651.742607 1349.862511,651.196990 1350.867266,649.360966 1352.172863,650.077633 1354.985171,644.952368 1353.679572,644.235700 1354.703947,642.365860 1355.562874,642.836474 1358.414668,637.654699 1357.555741,637.184085 1358.463792,635.272308 1360.746381,634.431759 1363.827947,635.954843 1366.390524,637.645194"/>
    <poly id="1051150934" type="landuse.grass" color="194,194,130" fill="1" layer="-3.00" shape="1372.695722,643.125171 1373.820198,644.246443 1375.504678,646.134261 1379.313785,651.702833 1381.406270,656.385783 1383.935085,664.530891 1379.132259,669.277313 1377.236743,668.896386 1375.305725,668.137907 1373.486357,667.210045 1370.997366,666.697588 1367.117495,666.215895 1364.548522,666.383994 1361.282051,666.934732 1357.803985,668.046532 1354.098256,670.220493 1349.098354,674.648605 1347.454360,676.432006 1345.629148,678.308437 1343.947437,679.614187 1342.016063,680.680654 1339.916934,681.528282 1337.146396,681.789875 1335.476501,681.481865 1333.895194,680.882579 1334.148621,680.064657 1336.757207,675.244333 1339.502865,670.176170 1343.308492,670.370165 1344.850500,670.113499 1346.294956,669.436143 1348.311973,667.944935 1349.421903,666.874387 1351.435978,663.102089 1354.137884,659.737425 1356.953358,653.221141 1358.384147,652.232519 1364.143887,651.159271 1366.144420,651.070512 1366.956279,650.640834 1368.070154,649.748245 1369.493955,648.136636 1370.905561,646.280489 1371.861744,644.089461 1372.695722,643.125171"/>
    <poly id="1051150936" type="landuse.flowerbed" color="194,194,130" fill="1" layer="-3.00" shape="1370.666827,637.328059 1367.356238,634.964340 1364.737866,633.820474 1364.159345,631.296180 1365.540021,628.962230 1366.893853,629.711217 1368.389818,630.134360 1369.783168,630.214819 1371.460149,629.921793 1373.026256,629.219500 1374.326913,628.178123 1375.100323,627.237428 1375.829477,625.830353 1376.225825,624.107939 1376.120485,622.107302 1375.540555,620.439862 1374.662439,619.101717 1373.553249,618.058000 1372.095674,617.222285 1373.784280,614.692358 1375.913391,614.278060 1378.050046,615.432585 1380.427122,616.715325 1383.627724,618.402703 1383.293707,619.567359 1382.530728,621.286753 1381.569430,624.167803 1380.902916,625.951830 1380.023080,628.219061 1378.975734,630.278572 1377.831824,631.961881 1375.981657,633.939001 1373.186045,636.137327 1370.666827,637.328059"/>
    <poly id="1051150937" type="man_made.embankment" color="255,230,230" fill="0" layer="-1.00" shape="1367.356238,634.964340 1364.737866,633.820474 1364.159345,631.296180 1365.540021,628.962230 1366.893853,629.711217 1368.389818,630.134360 1369.783168,630.214819 1371.460149,629.921793 1373.026256,629.219500 1374.326913,628.178123 1375.100323,627.237428 1375.829477,625.830353 1376.225825,624.107939 1376.120485,622.107302 1375.540555,620.439862 1374.662439,619.101717 1373.553249,618.058000 1372.095674,617.222285 1373.784280,614.692358 1375.913391,614.278060 1378.050046,615.432585"/>
    <poly id="1051150938" type="landuse.grass" color="194,194,130" fill="1" layer="-3.00" shape="1383.627724,618.402703 1387.182900,619.548118 1391.788351,620.915117 1395.761623,621.628444 1401.752741,621.807543 1404.957545,621.536386 1409.134203,621.010065 1410.903572,620.904180 1412.234787,622.165548 1409.524525,627.611221 1403.501793,638.282210 1398.555296,646.970953 1395.659314,651.997894 1390.807410,657.902658 1387.809161,661.374003 1386.888439,660.871367 1385.501289,660.456940 1383.710969,655.010631 1381.552750,650.117710 1378.392240,645.024405 1375.029573,641.226373 1370.666827,637.328059 1373.186045,636.137327 1375.981657,633.939001 1377.831824,631.961881 1378.975734,630.278572 1380.023080,628.219061 1380.902916,625.951830 1381.569430,624.167803 1382.530728,621.286753 1383.293707,619.567359 1383.627724,618.402703"/>
    <poly id="1051150939" type="man_made.embankment" color="255,230,230" fill="0" layer="-1.00" shape="1379.185393,612.747982 1374.964391,610.348754 1374.307858,608.593987 1375.214795,606.938173 1376.032525,607.387447 1378.916319,602.115958 1378.098835,601.677806 1378.979864,600.078204 1379.749363,600.495162 1382.692263,595.133348 1381.922517,594.705267 1382.920758,592.880522 1383.683227,593.286508 1386.495602,588.161262 1385.732887,587.744153 1386.646617,586.088191 1387.429933,586.515973 1390.424915,581.052864 1389.641599,580.625082 1390.503020,579.059299 1391.286336,579.487081 1394.515993,573.584809 1393.732676,573.157027 1400.082539,563.769596 1406.740355,554.186198 1419.016350,536.811700"/>
    <poly id="1051150940" type="landuse.grass" color="194,194,130" fill="1" layer="-3.00" shape="1424.303017,537.362486 1428.027375,540.017543 1428.456501,540.697967 1426.608224,554.125307 1422.445815,582.014028 1420.304212,597.217143 1414.782510,616.122580 1409.289496,617.902035 1404.708695,618.570822 1400.522936,618.685628 1395.692269,618.491997 1391.743039,617.945053 1385.577357,616.011667 1382.086235,614.386351 1379.185393,612.747982 1374.964391,610.348754 1374.307858,608.593987 1375.214795,606.938173 1376.032525,607.387447 1378.916319,602.115958 1378.098835,601.677806 1378.979864,600.078204 1379.749363,600.495162 1382.692263,595.133348 1381.922517,594.705267 1382.920758,592.880522 1383.683227,593.286508 1386.495602,588.161262 1385.732887,587.744153 1386.646617,586.088191 1387.429933,586.515973 1390.424915,581.052864 1389.641599,580.625082 1390.503020,579.059299 1391.286336,579.487081 1394.515993,573.584809 1393.732676,573.157027 1400.082539,563.769596 1406.740355,554.186198 1419.016350,536.811700 1422.798581,539.320815 1424.303017,537.362486"/>
    <poly id="1051153671" type="landuse.grass" color="194,194,130" fill="1" layer="-3.00" shape="1556.989625,687.535447 1552.021264,681.102135 1547.215203,673.719399 1543.714630,667.665404 1539.869468,660.762197 1536.773327,656.424049 1530.660150,649.793487 1524.872298,645.292242 1517.660491,642.090999 1512.139509,639.531200 1506.180154,637.715511 1503.531523,637.351171 1505.820123,641.083993 1507.477298,644.196491 1508.960031,647.401864 1510.614877,651.638301 1511.408223,654.057716 1512.107318,656.512597 1513.099706,660.874943 1513.787759,665.288521 1514.125669,668.908648 1514.251040,672.433322 1514.134161,676.975956 1513.668406,681.704337 1512.843797,686.474028 1511.815460,690.625075 1517.159513,691.630919 1526.183901,692.076997 1537.001391,691.648924 1544.399187,690.673244 1551.777830,688.830048 1556.989625,687.535447"/>
    <poly id="1051153672" type="natural.scrub" color="140,196,107" fill="1" layer="-4.00" shape="1555.953729,665.214146 1555.747850,666.342577 1555.713800,667.567362 1555.890078,668.787504 1556.361786,670.168035 1557.053461,671.365669 1557.667711,672.131037 1558.768345,673.097090 1559.738504,673.687686 1560.718057,674.088907 1562.205240,674.423281 1563.502604,674.461403 1564.983802,674.217277 1566.222869,673.767073 1567.649117,672.878762 1568.520242,672.058344 1569.377462,670.915534 1570.057206,669.420560 1570.389454,667.866492 1570.325638,665.898320 1570.344714,663.995083 1571.325095,664.741242 1573.247227,667.558595 1573.637668,668.640478 1573.876839,671.172285 1573.466456,673.184308 1572.329857,675.201236 1570.454858,676.978532 1566.855393,679.049834 1563.544767,679.445626 1562.452420,679.469743 1560.116807,678.831401 1556.114386,676.794406 1554.904950,675.819628 1553.597152,674.079220 1552.997487,671.822435 1553.482957,668.907418 1554.316381,667.609345 1555.953729,665.214146"/>
    <poly id="1051153673" type="landuse.grass" color="194,194,130" fill="1" layer="-3.00" shape="1570.344714,663.995083 1570.246302,661.382276 1570.198447,660.137044 1570.944412,658.874287 1572.647615,657.924225 1573.604270,657.903106 1583.780340,658.857991 1587.354317,659.936367 1587.554558,661.934911 1586.808589,663.197665 1581.917818,669.503682 1576.092391,675.596660 1570.197140,680.678576 1563.680779,684.683711 1559.362631,686.793142 1550.523681,675.070673 1547.083470,669.905549 1545.122641,666.566064 1540.642287,658.564126 1540.220554,655.758162 1540.575604,654.314864 1542.500306,655.095802 1546.469870,656.566006 1549.584365,657.431950 1552.553585,657.867129 1554.261970,658.074214 1555.744276,659.109732 1556.606709,660.047661 1555.953729,665.214146 1554.316381,667.609345 1553.482957,668.907418 1552.997487,671.822435 1553.597152,674.079220 1554.904950,675.819628 1556.114386,676.794406 1560.116807,678.831401 1562.452420,679.469743 1563.544767,679.445626 1566.855393,679.049834 1570.454858,676.978532 1572.329857,675.201236 1573.466456,673.184308 1573.876839,671.172285 1573.637668,668.640478 1573.247227,667.558595 1571.325095,664.741242 1570.344714,663.995083"/>
    <poly id="1051153674" type="landuse.grass" color="194,194,130" fill="1" layer="-3.00" shape="1451.836601,760.362712 1455.461720,758.535561 1462.466034,760.339218 1462.177291,761.402720 1468.445906,763.089114 1468.734405,762.014490 1474.284091,763.727906 1479.615970,766.336348 1485.647741,769.285413 1488.020633,770.690698 1487.640970,773.169410 1486.316909,776.837385 1483.748691,783.181215 1481.434907,788.751621 1478.758305,793.261798 1477.091393,796.158420 1475.314849,798.701383 1471.848446,802.795040 1469.034612,802.323097 1467.690381,801.084258 1465.638063,792.683775 1462.957379,782.572403 1461.654791,777.382352 1459.947137,773.213864 1458.030335,769.717654 1456.020021,766.290277 1453.689842,762.825459 1451.836601,760.362712"/>
    <poly id="1051153675" type="landuse.grass" color="194,194,130" fill="1" layer="-3.00" shape="1436.726085,736.694499 1439.839715,737.215436 1442.854918,737.582765 1445.880739,737.816330 1450.518363,737.880741 1454.031108,737.725211 1458.073943,737.290906 1462.462700,736.537388 1467.026779,735.423916 1469.831266,734.549629 1472.599373,733.564871 1472.971593,734.435725 1478.634656,732.062818 1478.219517,731.092763 1480.990630,729.629458 1483.670840,728.045759 1485.378882,731.924929 1487.133025,737.583495 1488.015340,742.493520 1488.839390,747.838808 1489.203801,753.272145 1489.085370,758.972084 1488.317214,767.523912 1478.295343,763.094019 1470.404566,760.186042 1462.058322,757.555205 1453.155825,755.248248 1450.121214,754.002263 1446.773229,751.783979 1444.673424,750.450570 1442.232366,748.112095 1440.283538,745.317637 1438.349654,742.278042 1437.000871,738.991835 1436.726085,736.694499"/>