<?xml version="1.0" encoding="UTF-8"?>

<!-- generated on 2025-03-18 01:12:51 by Eclipse SUMO duarouter Version 1.22.0
<duarouterConfiguration xmlns:xsi="http://www.w3.org/2001/XMLSchema-instance" xsi:noNamespaceSchemaLocation="http://sumo.dlr.de/xsd/duarouterConfiguration.xsd">

    <input>
        <net-file value="C:\Users\FADEL\Documents\GitHub\TrafficSimulation\backend\2025-03-18-01-12-40\osm.net.xml"/>
        <route-files value="C:\Users\FADEL\Documents\GitHub\TrafficSimulation\backend\2025-03-18-01-12-40\osm.passenger.trips.xml"/>
    </input>

    <output>
        <output-file value="C:\Users\FADEL\Documents\GitHub\TrafficSimulation\backend\2025-03-18-01-12-40\osm.passenger.trips.xml.tmp"/>
        <write-trips value="true"/>
    </output>

    <time>
        <begin value="0"/>
        <end value="3600"/>
    </time>

    <report>
        <no-warnings value="true"/>
        <ignore-errors value="true"/>
        <no-step-log value="true"/>
    </report>

</duarouterConfiguration>
-->

<routes xmlns:xsi="http://www.w3.org/2001/XMLSchema-instance" xsi:noNamespaceSchemaLocation="http://sumo.dlr.de/xsd/routes_file.xsd">
    <vType id="veh_passenger" vClass="passenger"/>
    <trip id="veh0" type="veh_passenger" depart="0.00" departLane="best" departSpeed="max" from="195401010" to="-1103300964#0"/>
    <trip id="veh1" type="veh_passenger" depart="10.51" departLane="best" from="284493291#0" to="24913524#4"/>
    <trip id="veh2" type="veh_passenger" depart="21.02" departLane="best" from="534588621#0" to="-1198409426#0"/>
    <trip id="veh3" type="veh_passenger" depart="31.52" departLane="best" from="1119838636#1" to="-1105574291#0"/>
    <trip id="veh4" type="veh_passenger" depart="42.03" departLane="best" departSpeed="max" from="-25294729#1" to="136571494#1"/>
    <trip id="veh5" type="veh_passenger" depart="52.54" departLane="best" from="-1105574291#2" to="-339201185"/>
    <trip id="veh6" type="veh_passenger" depart="63.05" departLane="best" from="195411606" to="19002363#1"/>
    <trip id="veh7" type="veh_passenger" depart="73.55" departLane="best" departSpeed="max" from="-25294729#1" to="225400578#1"/>
    <trip id="veh8" type="veh_passenger" depart="84.06" departLane="best" from="437325054#0" to="-1040930907#0"/>
    <trip id="veh9" type="veh_passenger" depart="94.57" departLane="best" from="437325048#0" to="25294729#1"/>
    <trip id="veh10" type="veh_passenger" depart="105.08" departLane="best" from="-534588621#3" to="-23121445#1"/>
    <trip id="veh11" type="veh_passenger" depart="115.58" departLane="best" departSpeed="max" from="755551647" to="1103300964#2"/>
    <trip id="veh12" type="veh_passenger" depart="126.09" departLane="best" from="437325048#0" to="339201177#5"/>
    <trip id="veh13" type="veh_passenger" depart="136.60" departLane="best" departSpeed="max" from="1218225317#0" to="82654059#1"/>
    <trip id="veh14" type="veh_passenger" depart="147.11" departLane="best" from="1101961674#2" to="194962375#2"/>
    <trip id="veh15" type="veh_passenger" depart="157.61" departLane="best" from="4610479#0" to="23809678#4"/>
    <trip id="veh17" type="veh_passenger" depart="178.63" departLane="best" from="23852053#2" to="-1123151415#0"/>
    <trip id="veh18" type="veh_passenger" depart="189.14" departLane="best" from="-31313667#1" to="-755551646#0"/>
    <trip id="veh19" type="veh_passenger" depart="199.64" departLane="best" departSpeed="max" from="-1157231003#2" to="-4610524#0"/>
    <trip id="veh20" type="veh_passenger" depart="210.15" departLane="best" from="-1263204721" to="-6227658#3"/>
    <trip id="veh21" type="veh_passenger" depart="220.66" departLane="best" departSpeed="max" from="195401010" to="1119838636#2"/>
    <trip id="veh22" type="veh_passenger" depart="231.17" departLane="best" from="1040930907#2" to="-43231842#3"/>
    <trip id="veh23" type="veh_passenger" depart="241.67" departLane="best" from="-454285423#2" to="6227658#3"/>
    <trip id="veh24" type="veh_passenger" depart="252.18" departLane="best" from="-225400578#3" to="1126237668#1"/>
    <trip id="veh25" type="veh_passenger" depart="262.69" departLane="best" departSpeed="max" from="83517336#0" to="24241790#2"/>
    <trip id="veh26" type="veh_passenger" depart="273.20" departLane="best" from="1332751227#0" to="24990040#1"/>
    <trip id="veh27" type="veh_passenger" depart="283.70" departLane="best" from="4611696#2" to="437325048#0"/>
    <trip id="veh28" type="veh_passenger" depart="294.21" departLane="best" from="-316746323#4" to="-1105574291#2"/>
    <trip id="veh29" type="veh_passenger" depart="304.72" departLane="best" from="-4773029#3" to="-534588621#2"/>
    <trip id="veh30" type="veh_passenger" depart="315.23" departLane="best" departSpeed="max" from="-24241790#3" to="66071379#1"/>
    <trip id="veh31" type="veh_passenger" depart="325.74" departLane="best" from="490365295#0" to="1024034687#2"/>
    <trip id="veh32" type="veh_passenger" depart="336.24" departLane="best" from="606078071#0" to="1170522567#0"/>
    <trip id="veh33" type="veh_passenger" depart="346.75" departLane="best" from="-437325054#1" to="-4611706#1"/>
    <trip id="veh34" type="veh_passenger" depart="357.26" departLane="best" from="136571494#0" to="-51167934#3"/>
    <trip id="veh35" type="veh_passenger" depart="367.77" departLane="best" departSpeed="max" from="165415464#0" to="534588621#0"/>
    <trip id="veh36" type="veh_passenger" depart="378.27" departLane="best" from="1105574291#2" to="-454285423#0"/>
    <trip id="veh37" type="veh_passenger" depart="388.78" departLane="best" from="84960597#1" to="156364556#1"/>
    <trip id="veh38" type="veh_passenger" depart="399.29" departLane="best" from="-1305423286#1" to="23812656#3"/>
    <trip id="veh39" type="veh_passenger" depart="409.80" departLane="best" departSpeed="max" from="389101365#1" to="1133992873#1"/>
    <trip id="veh40" type="veh_passenger" depart="420.30" departLane="best" from="-114667396#0" to="1126241276#1"/>
    <trip id="veh41" type="veh_passenger" depart="430.81" departLane="best" from="83517336#3" to="168942727#2"/>
    <trip id="veh42" type="veh_passenger" depart="441.32" departLane="best" from="82654059#1" to="46140382"/>
    <trip id="veh43" type="veh_passenger" depart="451.83" departLane="best" from="-1101961674#2" to="330840125#0"/>
    <trip id="veh44" type="veh_passenger" depart="462.33" departLane="best" from="23121445#4" to="171826984#2"/>
    <trip id="veh45" type="veh_passenger" depart="472.84" departLane="best" from="-454285423#0" to="24241790#2"/>
    <trip id="veh46" type="veh_passenger" depart="483.35" departLane="best" from="-1335908655" to="1151064395#1"/>
    <trip id="veh47" type="veh_passenger" depart="493.86" departLane="best" departSpeed="max" from="1126234503#0" to="72157174#1"/>
    <trip id="veh48" type="veh_passenger" depart="504.36" departLane="best" from="490365295#0" to="-51167934#3"/>
    <trip id="veh49" type="veh_passenger" depart="514.87" departLane="best" from="114667396#3" to="-24243107#1"/>
    <trip id="veh50" type="veh_passenger" depart="525.38" departLane="best" from="606078065" to="4773029#3"/>
    <trip id="veh51" type="veh_passenger" depart="535.89" departLane="best" from="-4611693#3" to="24241790#2"/>
    <trip id="veh52" type="veh_passenger" depart="546.39" departLane="best" departSpeed="max" from="19002357#0" to="-225400578#3"/>
    <trip id="veh54" type="veh_passenger" depart="567.41" departLane="best" from="-1024034687#0" to="1079495669#1"/>
    <trip id="veh55" type="veh_passenger" depart="577.92" departLane="best" from="-1102369940#1" to="61583424#1"/>
    <trip id="veh56" type="veh_passenger" depart="588.42" departLane="best" from="492340367#0" to="4611699#0"/>
    <trip id="veh57" type="veh_passenger" depart="598.93" departLane="best" departSpeed="max" from="-465398529#2" to="-1127597264#0"/>
    <trip id="veh58" type="veh_passenger" depart="609.44" departLane="best" from="490365295#0" to="68647306#4"/>
    <trip id="veh59" type="veh_passenger" depart="619.95" departLane="best" departSpeed="max" from="-11549895" to="38208961"/>
    <trip id="veh60" type="veh_passenger" depart="630.45" departLane="best" from="339201219" to="-19002363#1"/>
    <trip id="veh61" type="veh_passenger" depart="640.96" departLane="best" from="1127596842#2" to="194962375#0"/>
    <trip id="veh62" type="veh_passenger" depart="651.47" departLane="best" from="-437325054#1" to="4773465#2"/>
    <trip id="veh63" type="veh_passenger" depart="661.98" departLane="best" from="1119838636#2" to="-437325047#1"/>
    <trip id="veh64" type="veh_passenger" depart="672.49" departLane="best" from="1218225317#1" to="339201177#5"/>
    <trip id="veh65" type="veh_passenger" depart="682.99" departLane="best" departSpeed="max" from="-23813206" to="1024034687#2"/>
    <trip id="veh66" type="veh_passenger" depart="693.50" departLane="best" departSpeed="max" from="1123151415#0" to="15971197"/>
    <trip id="veh67" type="veh_passenger" depart="704.01" departLane="best" from="-168937986" to="-454285423#5"/>
    <trip id="veh68" type="veh_passenger" depart="714.52" departLane="best" from="-534588621#2" to="225400578#1"/>
    <trip id="veh69" type="veh_passenger" depart="725.02" departLane="best" from="-330840125#0" to="-454285423#2"/>
    <trip id="veh70" type="veh_passenger" depart="735.53" departLane="best" from="-316746323#4" to="541763974"/>
    <trip id="veh71" type="veh_passenger" depart="746.04" departLane="best" from="4611726#0" to="-1159156576#0"/>
    <trip id="veh72" type="veh_passenger" depart="756.55" departLane="best" from="-339201177#5" to="24913524#4"/>
    <trip id="veh73" type="veh_passenger" depart="767.05" departLane="best" from="-24243107#1" to="-19002363#5"/>
    <trip id="veh74" type="veh_passenger" depart="777.56" departLane="best" from="66071366#4" to="202156994#0"/>
    <trip id="veh75" type="veh_passenger" depart="788.07" departLane="best" from="1127592486#1" to="454285423#4"/>
    <trip id="veh76" type="veh_passenger" depart="798.58" departLane="best" from="437325048#0" to="-330840125#1"/>
    <trip id="veh77" type="veh_passenger" depart="809.08" departLane="best" from="-120675240#3" to="114667396#3"/>
    <trip id="veh78" type="veh_passenger" depart="819.59" departLane="best" from="1119838636#2" to="1179820253#0"/>
    <trip id="veh79" type="veh_passenger" depart="830.10" departLane="best" from="25294728#0" to="24913524#4"/>
    <trip id="veh80" type="veh_passenger" depart="840.61" departLane="best" departSpeed="max" from="831860725#0" to="-1218225317#0"/>
    <trip id="veh82" type="veh_passenger" depart="861.62" departLane="best" departSpeed="max" from="-23812656#3" to="1157231003#1"/>
    <trip id="veh83" type="veh_passenger" depart="872.13" departLane="best" from="1119838636#1" to="-62363402"/>
    <trip id="veh84" type="veh_passenger" depart="882.64" departLane="best" departSpeed="max" from="1126234503#0" to="46140382"/>
    <trip id="veh85" type="veh_passenger" depart="893.14" departLane="best" from="1320422400#0" to="-1123151415#3"/>
    <trip id="veh86" type="veh_passenger" depart="903.65" departLane="best" from="950222545" to="4611707#1"/>
    <trip id="veh87" type="veh_passenger" depart="914.16" departLane="best" from="4611698" to="-23812656#2"/>
    <trip id="veh88" type="veh_passenger" depart="924.67" departLane="best" from="1133457735#1" to="-437325047#2"/>
    <trip id="veh89" type="veh_passenger" depart="935.17" departLane="best" from="1110526068" to="-1127602336"/>
    <trip id="veh90" type="veh_passenger" depart="945.68" departLane="best" from="1101961674#2" to="84960597#1"/>
    <trip id="veh91" type="veh_passenger" depart="956.19" departLane="best" from="-437325054#1" to="454285423#4"/>
    <trip id="veh92" type="veh_passenger" depart="966.70" departLane="best" departSpeed="max" from="1126234503#0" to="1133992873#1"/>
    <trip id="veh93" type="veh_passenger" depart="977.21" departLane="best" departSpeed="max" from="755551647" to="882389494#0"/>
    <trip id="veh94" type="veh_passenger" depart="987.71" departLane="best" from="1320422402" to="31313667#2"/>
    <trip id="veh95" type="veh_passenger" depart="998.22" departLane="best" departSpeed="max" from="-202156991" to="-831860725#1"/>
    <trip id="veh96" type="veh_passenger" depart="1008.73" departLane="best" from="82654059#0" to="202157002#1"/>
    <trip id="veh97" type="veh_passenger" depart="1019.24" departLane="best" departSpeed="max" from="-1133992822" to="202817674#1"/>
    <trip id="veh98" type="veh_passenger" depart="1029.74" departLane="best" from="1149417521#1" to="4613295#4"/>
    <trip id="veh99" type="veh_passenger" depart="1040.25" departLane="best" from="-202817674#3" to="81112790#0"/>
    <trip id="veh100" type="veh_passenger" depart="1050.76" departLane="best" departSpeed="max" from="-1157231003#2" to="-31313667#0"/>
    <trip id="veh101" type="veh_passenger" depart="1061.27" departLane="best" from="169195795#0" to="24913524#4"/>
    <trip id="veh102" type="veh_passenger" depart="1071.77" departLane="best" from="-339201177#2" to="-165415464#2"/>
    <trip id="veh103" type="veh_passenger" depart="1082.28" departLane="best" from="51167934#5" to="-4611706#1"/>
    <trip id="veh104" type="veh_passenger" depart="1092.79" departLane="best" from="169195795#0" to="23809678#4"/>
    <trip id="veh105" type="veh_passenger" depart="1103.30" departLane="best" from="1119837507#1" to="202817674#1"/>
    <trip id="veh106" type="veh_passenger" depart="1113.80" departLane="best" from="1195359141" to="6227658#2"/>
    <trip id="veh107" type="veh_passenger" depart="1124.31" departLane="best" from="-23851930" to="31313667#0"/>
    <trip id="veh108" type="veh_passenger" depart="1134.82" departLane="best" from="-339201177#5" to="1127592486#1"/>
    <trip id="veh109" type="veh_passenger" depart="1145.33" departLane="best" from="225400578#3" to="-831860725#1"/>
    <trip id="veh110" type="veh_passenger" depart="1155.83" departLane="best" from="-4773029#3" to="35557161#1"/>
    <trip id="veh111" type="veh_passenger" depart="1166.34" departLane="best" departSpeed="max" from="-11549895" to="1170522567#0"/>
    <trip id="veh112" type="veh_passenger" depart="1176.85" departLane="best" from="84960597#2" to="882389494#0"/>
    <trip id="veh113" type="veh_passenger" depart="1187.36" departLane="best" departSpeed="max" from="-11549895" to="-437325047#2"/>
    <trip id="veh114" type="veh_passenger" depart="1197.86" departLane="best" from="1040930907#0" to="-23121445#3"/>
    <trip id="veh115" type="veh_passenger" depart="1208.37" departLane="best" from="4610524#0" to="284493291#0"/>
    <trip id="veh116" type="veh_passenger" depart="1218.88" departLane="best" departSpeed="max" from="19002357#0" to="882389494#0"/>
    <trip id="veh117" type="veh_passenger" depart="1229.39" departLane="best" from="202156994#0" to="-1040930907#0"/>
    <trip id="veh118" type="veh_passenger" depart="1239.89" departLane="best" from="454285423#5" to="-831860725#1"/>
    <trip id="veh119" type="veh_passenger" depart="1250.40" departLane="best" from="202157002#2" to="66071366#2"/>
    <trip id="veh120" type="veh_passenger" depart="1260.91" departLane="best" from="-19002363#2" to="-15977422#1"/>
    <trip id="veh121" type="veh_passenger" depart="1271.42" departLane="best" departSpeed="max" from="-1302053249" to="195397541#0"/>
    <trip id="veh122" type="veh_passenger" depart="1281.93" departLane="best" departSpeed="max" from="-454285423#6" to="23121445#2"/>
    <trip id="veh123" type="veh_passenger" depart="1292.43" departLane="best" from="24243107#2" to="-389101365#3"/>
    <trip id="veh124" type="veh_passenger" depart="1302.94" departLane="best" departSpeed="max" from="195401010" to="-51167934#4"/>
    <trip id="veh125" type="veh_passenger" depart="1313.45" departLane="best" from="1133457765#0" to="541763974"/>
    <trip id="veh126" type="veh_passenger" depart="1323.96" departLane="best" from="4611698" to="-120675240#3"/>
    <trip id="veh127" type="veh_passenger" depart="1334.46" departLane="best" from="1119838636#2" to="-6227658#2"/>
    <trip id="veh128" type="veh_passenger" depart="1344.97" departLane="best" departSpeed="max" from="-1024034687#2" to="437325047#2"/>
    <trip id="veh129" type="veh_passenger" depart="1355.48" departLane="best" departSpeed="max" from="195401010" to="-51167934#2"/>
    <trip id="veh130" type="veh_passenger" depart="1365.99" departLane="best" from="30721660#1" to="194962375#2"/>
    <trip id="veh131" type="veh_passenger" depart="1376.49" departLane="best" from="1121011269#0" to="-1040930907#3"/>
    <trip id="veh132" type="veh_passenger" depart="1387.00" departLane="best" departSpeed="max" from="-1157231003#2" to="505475202#1"/>
    <trip id="veh133" type="veh_passenger" depart="1397.51" departLane="best" from="54781811" to="19002363#2"/>
    <trip id="veh134" type="veh_passenger" depart="1408.02" departLane="best" from="4610524#1" to="202157002#2"/>
    <trip id="veh135" type="veh_passenger" depart="1418.52" departLane="best" from="-195397541#5" to="-19002363#0"/>
    <trip id="veh136" type="veh_passenger" depart="1429.03" departLane="best" departSpeed="max" from="-465398529#2" to="534588621#0"/>
    <trip id="veh137" type="veh_passenger" depart="1439.54" departLane="best" from="43231842#1" to="46140382"/>
    <trip id="veh138" type="veh_passenger" depart="1450.05" departLane="best" from="541763974" to="-43231842#3"/>
    <trip id="veh139" type="veh_passenger" depart="1460.55" departLane="best" from="-387892378" to="-1305423286#0"/>
    <trip id="veh140" type="veh_passenger" depart="1471.06" departLane="best" from="340498982#0" to="505475202#1"/>
    <trip id="veh141" type="veh_passenger" depart="1481.57" departLane="best" from="1112054538" to="23809678#5"/>
    <trip id="veh142" type="veh_passenger" depart="1492.08" departLane="best" from="448810728" to="505475201"/>
    <trip id="veh144" type="veh_passenger" depart="1513.09" departLane="best" from="-51167934#2" to="61584187#1"/>
    <trip id="veh145" type="veh_passenger" depart="1523.60" departLane="best" from="437325047#2" to="465398529#1"/>
    <trip id="veh146" type="veh_passenger" depart="1534.11" departLane="best" from="448810728" to="-534588621#2"/>
    <trip id="veh147" type="veh_passenger" depart="1544.61" departLane="best" departSpeed="max" from="389101365#1" to="-136571494#0"/>
    <trip id="veh148" type="veh_passenger" depart="1555.12" departLane="best" from="4773029#4" to="46140376#1"/>
    <trip id="veh149" type="veh_passenger" depart="1565.63" departLane="best" departSpeed="max" from="-25294729#1" to="4610607#0"/>
    <trip id="veh150" type="veh_passenger" depart="1576.14" departLane="best" from="1126237668#1" to="-950222545"/>
    <trip id="veh151" type="veh_passenger" depart="1586.65" departLane="best" from="43231842#0" to="-4610480#1"/>
    <trip id="veh152" type="veh_passenger" depart="1597.15" departLane="best" from="-1105574291#0" to="-339201177#1"/>
    <trip id="veh153" type="veh_passenger" depart="1607.66" departLane="best" departSpeed="max" from="-505475202#1" to="465398529#1"/>
    <trip id="veh154" type="veh_passenger" depart="1618.17" departLane="best" from="82654055" to="-62363402"/>
    <trip id="veh155" type="veh_passenger" depart="1628.68" departLane="best" departSpeed="max" from="195401010" to="1127596842#2"/>
    <trip id="veh156" type="veh_passenger" depart="1639.18" departLane="best" from="831694400#1" to="171826984#2"/>
    <trip id="veh157" type="veh_passenger" depart="1649.69" departLane="best" from="68647306#2" to="-15977422#1"/>
    <trip id="veh158" type="veh_passenger" depart="1660.20" departLane="best" from="82654059#0" to="-24243107#0"/>
    <trip id="veh159" type="veh_passenger" depart="1670.71" departLane="best" from="81112790#1" to="-51167934#5"/>
    <trip id="veh160" type="veh_passenger" depart="1681.21" departLane="best" from="-1305423286#0" to="1151064395#1"/>
    <trip id="veh161" type="veh_passenger" depart="1691.72" departLane="best" from="25294728#0" to="1024034687#2"/>
    <trip id="veh162" type="veh_passenger" depart="1702.23" departLane="best" from="183415643" to="156364556#1"/>
    <trip id="veh163" type="veh_passenger" depart="1712.74" departLane="best" from="1101961737" to="202157002#0"/>
    <trip id="veh164" type="veh_passenger" depart="1723.24" departLane="best" from="-43231842#1" to="30721660#1"/>
    <trip id="veh165" type="veh_passenger" depart="1733.75" departLane="best" from="-1024034687#1" to="61583423#1"/>
    <trip id="veh166" type="veh_passenger" depart="1744.26" departLane="best" departSpeed="max" from="1218225317#0" to="316746323#3"/>
    <trip id="veh167" type="veh_passenger" depart="1754.77" departLane="best" from="30721660#3" to="24913524#4"/>
    <trip id="veh168" type="veh_passenger" depart="1765.27" departLane="best" from="-950222545" to="-1159149106#0"/>
    <trip id="veh169" type="veh_passenger" depart="1775.78" departLane="best" from="202157002#2" to="1101961735#0"/>
    <trip id="veh170" type="veh_passenger" depart="1786.29" departLane="best" from="-4773029#1" to="4613295#1"/>
    <trip id="veh171" type="veh_passenger" depart="1796.80" departLane="best" from="243854725#1" to="-831860725#1"/>
    <trip id="veh172" type="veh_passenger" depart="1807.30" departLane="best" departSpeed="max" from="-465398529#2" to="1133457735#1"/>
    <trip id="veh173" type="veh_passenger" depart="1817.81" departLane="best" from="1111982484#0" to="-8008608"/>
    <trip id="veh174" type="veh_passenger" depart="1828.32" departLane="best" departSpeed="max" from="-168940071#2" to="1133992873#1"/>
    <trip id="veh175" type="veh_passenger" depart="1838.83" departLane="best" from="68647306#3" to="24913524#4"/>
    <trip id="veh176" type="veh_passenger" depart="1849.33" departLane="best" from="-4611696#3" to="19002363#3"/>
    <trip id="veh177" type="veh_passenger" depart="1859.84" departLane="best" from="-1024034687#0" to="-751595928#1"/>
    <trip id="veh178" type="veh_passenger" depart="1870.35" departLane="best" from="1121011269#1" to="202157002#1"/>
    <trip id="veh179" type="veh_passenger" depart="1880.86" departLane="best" departSpeed="max" from="1126234503#0" to="-437325047#2"/>
    <trip id="veh180" type="veh_passenger" depart="1891.36" departLane="best" from="43231842#1" to="-23851930"/>
    <trip id="veh181" type="veh_passenger" depart="1901.87" departLane="best" from="4610351#0" to="35557161#1"/>
    <trip id="veh182" type="veh_passenger" depart="1912.38" departLane="best" from="22972219#0" to="-454285423#5"/>
    <trip id="veh183" type="veh_passenger" depart="1922.89" departLane="best" departSpeed="max" from="-23813206" to="-1103300964#0"/>
    <trip id="veh184" type="veh_passenger" depart="1933.40" departLane="best" departSpeed="max" from="-35557161#1" to="120675240#1"/>
    <trip id="veh185" type="veh_passenger" depart="1943.90" departLane="best" from="1116360926#1" to="23812656#3"/>
    <trip id="veh186" type="veh_passenger" depart="1954.41" departLane="best" departSpeed="max" from="-23812656#3" to="25294729#1"/>
    <trip id="veh187" type="veh_passenger" depart="1964.92" departLane="best" from="1144362247" to="-4611696#4"/>
    <trip id="veh188" type="veh_passenger" depart="1975.43" departLane="best" from="202156994#0" to="-1040930907#0"/>
    <trip id="veh189" type="veh_passenger" depart="1985.93" departLane="best" from="31313667#2" to="437325047#1"/>
    <trip id="veh190" type="veh_passenger" depart="1996.44" departLane="best" departSpeed="max" from="-1302053249" to="1144362247"/>
    <trip id="veh191" type="veh_passenger" depart="2006.95" departLane="best" from="-23121445#4" to="8008608"/>
    <trip id="veh192" type="veh_passenger" depart="2017.46" departLane="best" from="-387892378" to="4613295#2"/>
    <trip id="veh193" type="veh_passenger" depart="2027.96" departLane="best" departSpeed="max" from="1126234503#0" to="4610362#0"/>
    <trip id="veh194" type="veh_passenger" depart="2038.47" departLane="best" from="202817674#4" to="882389494#0"/>
    <trip id="veh195" type="veh_passenger" depart="2048.98" departLane="best" from="534588621#0" to="234463931#1"/>
    <trip id="veh196" type="veh_passenger" depart="2059.49" departLane="best" from="243854725#1" to="136571494#1"/>
    <trip id="veh197" type="veh_passenger" depart="2069.99" departLane="best" from="4610479#1" to="19002363#3"/>
    <trip id="veh198" type="veh_passenger" depart="2080.50" departLane="best" from="54048862#2" to="340498976#7"/>
    <trip id="veh199" type="veh_passenger" depart="2091.01" departLane="best" from="1127596842#2" to="-507023458#1"/>
    <trip id="veh200" type="veh_passenger" depart="2101.52" departLane="best" from="339201219" to="168940071#2"/>
    <trip id="veh201" type="veh_passenger" depart="2112.02" departLane="best" from="195397541#4" to="-6227658#0"/>
    <trip id="veh202" type="veh_passenger" depart="2122.53" departLane="best" departSpeed="max" from="-1157231003#2" to="-743631784#0"/>
    <trip id="veh203" type="veh_passenger" depart="2133.04" departLane="best" from="-454285423#5" to="1077923225#0"/>
    <trip id="veh204" type="veh_passenger" depart="2143.55" departLane="best" from="-330840125#1" to="25294729#1"/>
    <trip id="veh205" type="veh_passenger" depart="2154.05" departLane="best" from="23852053#3" to="-114667396#0"/>
    <trip id="veh206" type="veh_passenger" depart="2164.56" departLane="best" from="1112054538" to="183415643"/>
    <trip id="veh207" type="veh_passenger" depart="2175.07" departLane="best" from="1117432853#1" to="-43231842#1"/>
    <trip id="veh208" type="veh_passenger" depart="2185.58" departLane="best" from="1119837507#1" to="541763974"/>
    <trip id="veh209" type="veh_passenger" depart="2196.08" departLane="best" departSpeed="max" from="165415464#0" to="25294729#1"/>
    <trip id="veh210" type="veh_passenger" depart="2206.59" departLane="best" from="4611726#0" to="43231842#2"/>
    <trip id="veh211" type="veh_passenger" depart="2217.10" departLane="best" from="1101961674#3" to="-1040930907#0"/>
    <trip id="veh212" type="veh_passenger" depart="2227.61" departLane="best" from="-66071366#2" to="35557161#1"/>
    <trip id="veh213" type="veh_passenger" depart="2238.12" departLane="best" from="4611699#1" to="72157174#1"/>
    <trip id="veh214" type="veh_passenger" depart="2248.62" departLane="best" from="1305423286#0" to="23121445#1"/>
    <trip id="veh215" type="veh_passenger" depart="2259.13" departLane="best" departSpeed="max" from="-25294729#1" to="-454285423#0"/>
    <trip id="veh216" type="veh_passenger" depart="2269.64" departLane="best" departSpeed="max" from="1123151415#0" to="-1103300964#2"/>
    <trip id="veh217" type="veh_passenger" depart="2280.15" departLane="best" from="-51167934#5" to="24913524#4"/>
    <trip id="veh218" type="veh_passenger" depart="2290.65" departLane="best" from="1111982484#1" to="-23809670#0"/>
    <trip id="veh219" type="veh_passenger" depart="2301.16" departLane="best" from="1126244314#1" to="-19002363#1"/>
    <trip id="veh220" type="veh_passenger" depart="2311.67" departLane="best" from="195397541#0" to="-1103300964#0"/>
    <trip id="veh221" type="veh_passenger" depart="2322.18" departLane="best" departSpeed="max" from="1103300964#0" to="202156991"/>
    <trip id="veh222" type="veh_passenger" depart="2332.68" departLane="best" from="-1110526068" to="24241790#2"/>
    <trip id="veh223" type="veh_passenger" depart="2343.19" departLane="best" from="-19002363#3" to="1171295120#1"/>
    <trip id="veh224" type="veh_passenger" depart="2353.70" departLane="best" from="-1127596842#0" to="1126237668#1"/>
    <trip id="veh225" type="veh_passenger" depart="2364.21" departLane="best" from="-24243101" to="1101961674#2"/>
    <trip id="veh226" type="veh_passenger" depart="2374.71" departLane="best" from="339201177#5" to="1126237668#1"/>
    <trip id="veh227" type="veh_passenger" depart="2385.22" departLane="best" from="316746323#3" to="4611699#0"/>
    <trip id="veh228" type="veh_passenger" depart="2395.73" departLane="best" from="-43156728#1" to="-1173516145#1"/>
    <trip id="veh229" type="veh_passenger" depart="2406.24" departLane="best" from="950222545" to="1113726463"/>
    <trip id="veh230" type="veh_passenger" depart="2416.74" departLane="best" from="195411606" to="454285423#0"/>
    <trip id="veh231" type="veh_passenger" depart="2427.25" departLane="best" from="202156994#0" to="35557161#1"/>
    <trip id="veh232" type="veh_passenger" depart="2437.76" departLane="best" from="751595929#1" to="-370359204#1"/>
    <trip id="veh233" type="veh_passenger" depart="2448.27" departLane="best" from="-1102369940#1" to="-225400578#3"/>
    <trip id="veh234" type="veh_passenger" depart="2458.77" departLane="best" departSpeed="max" from="-168940071#2" to="24913524#4"/>
    <trip id="veh235" type="veh_passenger" depart="2469.28" departLane="best" from="23812656#1" to="43231842#3"/>
    <trip id="veh236" type="veh_passenger" depart="2479.79" departLane="best" departSpeed="max" from="-225400578#4" to="23121445#4"/>
    <trip id="veh238" type="veh_passenger" depart="2500.80" departLane="best" from="-1305423286#0" to="-1103300964#0"/>
    <trip id="veh239" type="veh_passenger" depart="2511.31" departLane="best" from="-474362271" to="24913524#4"/>
    <trip id="veh240" type="veh_passenger" depart="2521.82" departLane="best" from="8008608" to="1127592486#1"/>
    <trip id="veh241" type="veh_passenger" depart="2532.33" departLane="best" from="24243107#0" to="-1173516144#0"/>
    <trip id="veh242" type="veh_passenger" depart="2542.84" departLane="best" from="23809670#1" to="23812656#3"/>
    <trip id="veh243" type="veh_passenger" depart="2553.34" departLane="best" departSpeed="max" from="-1302053249" to="437325047#3"/>
    <trip id="veh244" type="veh_passenger" depart="2563.85" departLane="best" from="4611699#0" to="23013165"/>
    <trip id="veh246" type="veh_passenger" depart="2584.87" departLane="best" from="370359204#1" to="1112054538"/>
    <trip id="veh247" type="veh_passenger" depart="2595.37" departLane="best" from="1158584613" to="1105574291#2"/>