<?xml version="1.0" encoding="UTF-8"?>

<!-- generated on 2025-03-18 01:12:47 by Eclipse SUMO netconvert Version 1.22.0
<netconvertConfiguration xmlns:xsi="http://www.w3.org/2001/XMLSchema-instance" xsi:noNamespaceSchemaLocation="http://sumo.dlr.de/xsd/netconvertConfiguration.xsd">

    <input>
        <type-files value="C:\Program%20Files%20(x86)\Eclipse\Sumo\data\typemap\osmNetconvert.typ.xml"/>
        <osm-files value="osm_bbox.osm.xml"/>
    </input>

    <output>
        <output-file value="osm.net.xml"/>
        <output.street-names value="true"/>
        <output.original-names value="true"/>
    </output>

    <projection>
        <proj.utm value="true"/>
    </projection>

    <processing>
        <geometry.remove value="true"/>
        <roundabouts.guess value="true"/>
    </processing>

    <tls_building>
        <tls.discard-simple value="true"/>
        <tls.join value="true"/>
        <tls.guess-signals value="true"/>
        <tls.default-type value="actuated"/>
    </tls_building>

    <ramp_guessing>
        <ramps.guess value="true"/>
    </ramp_guessing>

    <junctions>
        <junctions.join value="true"/>
        <junctions.corner-detail value="5"/>
    </junctions>

    <report>
        <verbose value="true"/>
    </report>

</netconvertConfiguration>
-->

<net version="1.20" junctionCornerDetail="5" limitTurnSpeed="5.50" xmlns:xsi="http://www.w3.org/2001/XMLSchema-instance" xsi:noNamespaceSchemaLocation="http://sumo.dlr.de/xsd/net_file.xsd">

    <location netOffset="-390301.53,-5819236.69" convBoundary="0.00,0.00,2163.02,1747.45" origBoundary="13.368759,52.506732,13.415030,52.528166" projParameter="+proj=utm +zone=33 +ellps=WGS84 +datum=WGS84 +units=m +no_defs"/>

    <type id="highway.cycleway" priority="1" numLanes="1" speed="5.56" allow="bicycle" oneway="0" width="2.00"/>
    <type id="highway.footway" priority="1" numLanes="1" speed="2.78" allow="pedestrian" oneway="1" width="2.00"/>
    <type id="highway.living_street" priority="2" numLanes="1" speed="2.78" disallow="tram rail_urban rail rail_electric rail_fast ship container cable_car subway aircraft wheelchair scooter drone" oneway="0"/>
    <type id="highway.path" priority="1" numLanes="1" speed="5.56" allow="pedestrian bicycle" oneway="0" width="2.00"/>
    <type id="highway.pedestrian" priority="1" numLanes="1" speed="2.78" allow="pedestrian" oneway="1" width="2.00"/>
    <type id="highway.primary" priority="12" numLanes="2" speed="27.78" disallow="tram rail_urban rail rail_electric rail_fast ship container cable_car subway aircraft wheelchair scooter drone" oneway="0"/>
    <type id="highway.residential" priority="3" numLanes="1" speed="13.89" disallow="tram rail_urban rail rail_electric rail_fast ship container cable_car subway aircraft wheelchair scooter drone" oneway="0"/>
    <type id="highway.secondary" priority="11" numLanes="1" speed="27.78" disallow="tram rail_urban rail rail_electric rail_fast ship container cable_car subway aircraft wheelchair scooter drone" oneway="0"/>
    <type id="highway.service" priority="1" numLanes="1" speed="5.56" allow="pedestrian delivery bicycle" oneway="0"/>
    <type id="highway.steps" priority="1" numLanes="1" speed="1.39" allow="pedestrian" oneway="1" width="2.00"/>
    <type id="highway.tertiary" priority="10" numLanes="1" speed="22.22" disallow="tram rail_urban rail rail_electric rail_fast ship container cable_car subway aircraft wheelchair scooter drone" oneway="0"/>
    <type id="railway.light_rail" priority="19" numLanes="1" speed="27.78" allow="rail_urban" oneway="1"/>
    <type id="railway.rail" priority="20" numLanes="1" speed="44.44" allow="rail" oneway="1"/>
    <type id="railway.subway" priority="18" numLanes="1" speed="27.78" allow="subway" oneway="1"/>
    <type id="railway.tram" priority="17" numLanes="1" speed="13.89" allow="tram" oneway="1"/>

    <edge id=":10053209432_0" function="internal">
        <lane id=":10053209432_0_0" index="0" allow="pedestrian delivery bicycle" speed="8.33" length="5.98" shape="1380.28,923.54 1375.05,920.62"/>
    </edge>
    <edge id=":10053209432_1" function="internal">
        <lane id=":10053209432_1_0" index="0" allow="pedestrian delivery bicycle" speed="3.65" length="1.44" shape="1380.28,923.54 1379.62,922.26"/>
    </edge>
    <edge id=":10053209432_4" function="internal">
        <lane id=":10053209432_4_0" index="0" allow="pedestrian delivery bicycle" speed="3.65" length="3.23" shape="1379.62,922.26 1379.66,921.36 1380.40,920.86 1381.84,920.75"/>
    </edge>
    <edge id=":10053209432_2" function="internal">
        <lane id=":10053209432_2_0" index="0" allow="pedestrian delivery bicycle" speed="8.33" length="5.98" shape="1376.61,917.83 1381.84,920.75"/>
    </edge>
    <edge id=":10053209432_3" function="internal">
        <lane id=":10053209432_3_0" index="0" allow="pedestrian delivery bicycle" speed="3.65" length="1.44" shape="1376.61,917.83 1377.27,919.11"/>
    </edge>
    <edge id=":10053209432_5" function="internal">
        <lane id=":10053209432_5_0" index="0" allow="pedestrian delivery bicycle" speed="3.65" length="3.23" shape="1377.27,919.11 1377.23,920.01 1376.49,920.51 1375.05,920.62"/>
    </edge>
    <edge id=":10083821714_0" function="internal">
        <lane id=":10083821714_0_0" index="0" disallow="tram rail_urban rail rail_electric rail_fast ship container cable_car subway aircraft wheelchair scooter drone" speed="8.33" length="3.04" shape="874.16,725.02 873.42,724.51 872.97,724.08 872.52,723.66 871.79,723.14"/>
    </edge>
    <edge id=":10083821714_1" function="internal">
        <lane id=":10083821714_1_0" index="0" disallow="tram rail_urban rail rail_electric rail_fast ship container cable_car subway aircraft wheelchair scooter drone" speed="8.33" length="3.04" width="4.00" shape="873.42,720.40 874.22,720.80 874.81,720.99 875.41,721.18 876.21,721.59"/>
    </edge>
    <edge id=":10083827716_0" function="internal">
        <lane id=":10083827716_0_0" index="0" disallow="tram rail_urban rail rail_electric rail_fast ship container cable_car subway aircraft wheelchair scooter drone" speed="8.33" length="3.24" width="4.00" shape="932.20,760.50 931.48,759.90 931.16,759.30 930.83,758.70 930.12,758.10"/>
    </edge>
    <edge id=":10083827716_1" function="internal">
        <lane id=":10083827716_1_0" index="0" disallow="tram rail_urban rail rail_electric rail_fast ship container cable_car subway aircraft wheelchair scooter drone" speed="8.33" length="3.23" width="6.10" shape="932.12,754.63 933.00,754.95 933.68,754.93 934.37,754.91 935.24,755.22"/>
    </edge>
    <edge id=":10084791378_0" function="internal">
        <lane id=":10084791378_0_0" index="0" disallow="pedestrian tram rail_urban rail rail_electric rail_fast ship container cable_car subway aircraft wheelchair scooter drone" speed="3.65" length="4.67" shape="377.87,1353.30 376.63,1352.56 376.20,1351.78 376.56,1350.96 377.72,1350.11"/>
    </edge>
    <edge id=":10096338263_0" function="internal">
        <lane id=":10096338263_0_0" index="0" disallow="pedestrian tram rail_urban rail rail_electric rail_fast ship container cable_car subway aircraft wheelchair scooter drone" speed="3.65" length="4.67" shape="1385.00,1415.81 1384.61,1417.20 1383.98,1417.83 1383.09,1417.70 1381.96,1416.81"/>
    </edge>
    <edge id=":10188353045_0" function="internal">
        <lane id=":10188353045_0_0" index="0" allow="pedestrian delivery bicycle" speed="3.65" length="4.67" shape="1501.02,715.58 1500.50,714.23 1500.64,713.35 1501.43,712.93 1502.87,712.97"/>
    </edge>
    <edge id=":10189040386_0" function="internal">
        <lane id=":10189040386_0_0" index="0" disallow="pedestrian tram rail_urban rail rail_electric rail_fast ship container cable_car subway aircraft wheelchair scooter drone" speed="13.89" length="8.21" shape="568.58,560.17 566.18,560.24 564.54,560.67 562.90,561.10 560.49,561.17"/>
        <lane id=":10189040386_0_1" index="1" disallow="pedestrian tram rail_urban rail rail_electric rail_fast ship container cable_car subway aircraft wheelchair scooter drone" speed="13.89" length="8.21" shape="568.82,556.98 566.41,557.05 564.78,557.48 563.14,557.90 560.73,557.97"/>
        <lane id=":10189040386_0_2" index="2" disallow="pedestrian tram rail_urban rail rail_electric rail_fast ship container cable_car subway aircraft wheelchair scooter drone" speed="13.89" length="8.21" shape="568.82,556.98 566.45,556.55 564.89,555.88 563.34,555.21 560.97,554.78"/>
    </edge>
    <edge id=":10196206495_0" function="internal">
        <lane id=":10196206495_0_0" index="0" disallow="pedestrian tram rail_urban rail rail_electric rail_fast ship container cable_car subway aircraft wheelchair scooter drone" speed="8.33" length="6.06" width="3.40" shape="636.44,1341.01 634.71,1341.52 633.51,1341.79 632.28,1341.93 630.49,1342.03"/>
    </edge>
    <edge id=":10196206495_1" function="internal">
        <lane id=":10196206495_1_0" index="0" disallow="pedestrian tram rail_urban rail rail_electric rail_fast ship container cable_car subway aircraft wheelchair scooter drone" speed="8.33" length="5.44" width="3.40" shape="630.11,1338.64 631.72,1338.56 632.83,1338.44 633.91,1338.21 635.46,1337.76"/>
    </edge>
    <edge id=":10196206498_0" function="internal">
        <lane id=":10196206498_0_0" index="0" allow="pedestrian delivery bicycle" speed="5.56" length="5.07" shape="595.03,974.92 589.98,974.44"/>
    </edge>
    <edge id=":10196206498_1" function="internal">
        <lane id=":10196206498_1_0" index="0" allow="pedestrian delivery bicycle" speed="3.65" length="1.44" shape="595.03,974.92 593.93,973.99"/>
    </edge>
    <edge id=":10196206498_4" function="internal">
        <lane id=":10196206498_4_0" index="0" allow="pedestrian delivery bicycle" speed="3.65" length="3.23" shape="593.93,973.99 593.63,973.15 594.12,972.40 595.40,971.74"/>
    </edge>
    <edge id=":10196206498_2" function="internal">
        <lane id=":10196206498_2_0" index="0" allow="pedestrian delivery bicycle" speed="5.56" length="5.16" shape="590.27,971.25 595.40,971.74"/>
    </edge>
    <edge id=":10196206498_3" function="internal">
        <lane id=":10196206498_3_0" index="0" allow="pedestrian delivery bicycle" speed="3.65" length="1.44" shape="590.27,971.25 591.39,972.16"/>
    </edge>
    <edge id=":10196206498_5" function="internal">
        <lane id=":10196206498_5_0" index="0" allow="pedestrian delivery bicycle" speed="3.65" length="3.23" shape="591.39,972.16 591.72,972.99 591.25,973.75 589.98,974.44"/>
    </edge>
    <edge id=":10196222666_0" function="internal">
        <lane id=":10196222666_0_0" index="0" allow="pedestrian delivery bicycle" speed="3.65" length="4.67" shape="754.48,1206.33 753.10,1205.93 752.48,1205.28 752.62,1204.40 753.53,1203.28"/>
    </edge>
    <edge id=":10196222667_0" function="internal">
        <lane id=":10196222667_0_0" index="0" allow="pedestrian delivery bicycle" speed="5.09" length="5.07" shape="771.97,1204.09 771.36,1202.87 770.49,1202.14 769.36,1201.89 767.97,1202.12"/>
    </edge>
    <edge id=":10196222667_1" function="internal">
        <lane id=":10196222667_1_0" index="0" disallow="tram rail_urban rail rail_electric rail_fast ship container cable_car subway aircraft wheelchair scooter drone" speed="8.33" length="9.41" shape="771.97,1204.09 769.01,1195.16"/>
    </edge>
    <edge id=":10196222667_2" function="internal">
        <lane id=":10196222667_2_0" index="0" disallow="tram rail_urban rail rail_electric rail_fast ship container cable_car subway aircraft wheelchair scooter drone" speed="8.33" length="9.43" shape="772.05,1194.15 775.01,1203.10"/>
    </edge>
    <edge id=":10196222667_3" function="internal">
        <lane id=":10196222667_3_0" index="0" allow="pedestrian delivery bicycle" speed="6.85" length="3.30" shape="772.05,1194.15 772.55,1196.92 772.45,1197.39"/>
    </edge>
    <edge id=":10196222667_7" function="internal">
        <lane id=":10196222667_7_0" index="0" allow="pedestrian delivery bicycle" speed="6.85" length="6.96" shape="772.45,1197.39 772.04,1199.17 770.51,1200.91 767.97,1202.12"/>
    </edge>
    <edge id=":10196222667_4" function="internal">
        <lane id=":10196222667_4_0" index="0" allow="pedestrian delivery bicycle" speed="5.02" length="5.02" shape="767.01,1199.07 768.26,1198.47 769.01,1197.62 769.26,1196.52 769.01,1195.16"/>
    </edge>
    <edge id=":10196222667_5" function="internal">
        <lane id=":10196222667_5_0" index="0" allow="pedestrian delivery bicycle" speed="6.90" length="10.18" shape="767.01,1199.07 769.78,1198.61 772.04,1199.13 773.78,1200.62 775.01,1203.10"/>
    </edge>
    <edge id=":10196222667_6" function="internal">
        <lane id=":10196222667_6_0" index="0" allow="pedestrian delivery bicycle" speed="3.65" length="4.67" shape="767.01,1199.07 768.40,1199.47 769.02,1200.12 768.87,1201.00 767.97,1202.12"/>
    </edge>
    <edge id=":10242249291_0" function="internal">
        <lane id=":10242249291_0_0" index="0" disallow="tram rail_urban rail rail_electric rail_fast ship container cable_car subway aircraft wheelchair scooter drone" speed="8.33" length="0.10" shape="707.56,787.08 707.56,787.08"/>
    </edge>
    <edge id=":10253354251_0" function="internal">
        <lane id=":10253354251_0_0" index="0" disallow="pedestrian tram rail_urban rail rail_electric rail_fast ship container cable_car subway aircraft wheelchair scooter drone" speed="3.65" length="4.67" shape="933.30,1415.77 934.26,1416.84 934.45,1417.72 933.86,1418.39 932.50,1418.86"/>
    </edge>
    <edge id=":10287056963_0" function="internal">
        <lane id=":10287056963_0_0" index="0" disallow="pedestrian tram rail_urban rail rail_electric rail_fast ship container cable_car subway aircraft wheelchair scooter drone" speed="8.33" length="5.02" shape="526.72,387.30 521.71,386.99"/>
    </edge>
    <edge id=":10287056963_1" function="internal">
        <lane id=":10287056963_1_0" index="0" disallow="pedestrian tram rail_urban rail rail_electric rail_fast ship container cable_car subway aircraft wheelchair scooter drone" speed="8.33" length="5.05" shape="521.88,383.80 526.92,384.11"/>
    </edge>
    <edge id=":10287056969_0" function="internal">
        <lane id=":10287056969_0_0" index="0" allow="pedestrian delivery bicycle" speed="3.73" length="4.96" shape="514.30,417.44 515.11,418.74 515.14,419.69 514.41,420.29 512.89,420.53"/>
    </edge>
    <edge id=":10287056970_0" function="internal">
        <lane id=":10287056970_0_0" index="0" allow="delivery bicycle" speed="6.09" length="7.76" shape="508.20,420.12 506.89,419.60 506.02,418.34 505.61,416.33 505.66,413.57"/>
    </edge>
    <edge id=":10287056970_1" function="internal">
        <lane id=":10287056970_1_0" index="0" allow="pedestrian delivery bicycle" speed="3.65" length="4.67" shape="508.20,420.12 507.08,419.21 506.75,418.38 507.22,417.62 508.49,416.93"/>
    </edge>
    <edge id=":10287056970_2" function="internal">
        <lane id=":10287056970_2_0" index="0" disallow="pedestrian tram rail_urban rail rail_electric rail_fast ship container cable_car subway aircraft wheelchair scooter drone" speed="8.33" length="9.40" shape="504.84,422.93 505.66,413.57"/>
    </edge>
    <edge id=":10287056970_3" function="internal">
        <lane id=":10287056970_3_0" index="0" allow="delivery bicycle" speed="6.08" length="7.76" shape="504.84,422.93 505.28,420.20 506.03,418.29 507.10,417.20 508.49,416.93"/>
    </edge>
    <edge id=":10287056971_0" function="internal">
        <lane id=":10287056971_0_0" index="0" allow="pedestrian delivery bicycle" speed="5.56" length="3.65" shape="512.69,420.52 509.06,420.19"/>
    </edge>
    <edge id=":10287056971_1" function="internal">
        <lane id=":10287056971_1_0" index="0" allow="pedestrian delivery bicycle" speed="3.73" length="1.32" shape="512.69,420.52 512.00,419.39"/>
    </edge>
    <edge id=":10287056971_4" function="internal">
        <lane id=":10287056971_4_0" index="0" allow="pedestrian delivery bicycle" speed="3.73" length="3.64" shape="512.00,419.39 511.89,419.21 511.85,418.26 512.59,417.67 514.11,417.43"/>
    </edge>
    <edge id=":10287056971_2" function="internal">
        <lane id=":10287056971_2_0" index="0" allow="pedestrian delivery bicycle" speed="5.56" length="4.78" shape="509.35,417.01 514.11,417.43"/>
    </edge>
    <edge id=":10287056971_3" function="internal">
        <lane id=":10287056971_3_0" index="0" allow="pedestrian delivery bicycle" speed="3.65" length="1.44" shape="509.35,417.01 510.47,417.91"/>
    </edge>
    <edge id=":10287056971_5" function="internal">
        <lane id=":10287056971_5_0" index="0" allow="pedestrian delivery bicycle" speed="3.65" length="3.23" shape="510.47,417.91 510.80,418.74 510.33,419.50 509.06,420.19"/>
    </edge>
    <edge id=":102982788_0" function="internal">
        <lane id=":102982788_0_0" index="0" disallow="pedestrian tram rail_urban rail rail_electric rail_fast ship container cable_car subway aircraft wheelchair scooter drone" speed="8.33" length="8.75" shape="1620.02,338.56 1619.06,336.25 1619.10,334.37 1619.13,332.49 1618.14,330.21"/>
    </edge>
    <edge id=":102982788_1" function="internal">
        <lane id=":102982788_1_0" index="0" disallow="pedestrian tram rail_urban rail rail_electric rail_fast ship container cable_car subway aircraft wheelchair scooter drone" speed="8.33" length="8.43" shape="1620.76,328.37 1622.59,330.11 1624.38,330.76 1626.16,331.41 1627.96,333.17"/>
        <lane id=":102982788_1_1" index="1" disallow="pedestrian tram rail_urban rail rail_electric rail_fast ship container cable_car subway aircraft wheelchair scooter drone" speed="8.33" length="8.43" shape="1620.76,328.37 1625.31,334.97"/>
    </edge>
    <edge id=":10298679585_0" function="internal">
        <lane id=":10298679585_0_0" index="0" disallow="tram rail_urban rail rail_electric rail_fast ship container cable_car subway aircraft wheelchair scooter drone" speed="3.65" length="4.67" shape="909.08,279.37 910.00,278.26 910.84,277.94 911.59,278.42 912.27,279.69"/>
    </edge>
    <edge id=":10300697367_0" function="internal">
        <lane id=":10300697367_0_0" index="0" allow="pedestrian delivery bicycle" speed="5.43" length="5.57" shape="806.93,1301.27 806.27,1300.05 805.29,1299.36 803.98,1299.20 802.35,1299.56"/>
    </edge>
    <edge id=":10300697367_1" function="internal">
        <lane id=":10300697367_1_0" index="0" disallow="tram rail_urban rail rail_electric rail_fast ship container cable_car subway aircraft wheelchair scooter drone" speed="8.33" length="9.44" width="4.55" shape="806.93,1301.27 803.83,1292.35"/>
    </edge>
    <edge id=":10300697367_2" function="internal">
        <lane id=":10300697367_2_0" index="0" disallow="tram rail_urban rail rail_electric rail_fast ship container cable_car subway aircraft wheelchair scooter drone" speed="8.33" length="9.52" width="4.55" shape="808.12,1290.82 811.24,1299.81"/>
    </edge>
    <edge id=":10300697367_3" function="internal">
        <lane id=":10300697367_3_0" index="0" allow="pedestrian delivery bicycle" speed="6.95" length="4.12" shape="808.12,1290.82 808.56,1293.61 808.15,1294.83"/>
    </edge>
    <edge id=":10300697367_7" function="internal">
        <lane id=":10300697367_7_0" index="0" allow="pedestrian delivery bicycle" speed="6.95" length="7.78" shape="808.15,1294.83 807.75,1296.00 805.68,1297.98 802.35,1299.56"/>
    </edge>
    <edge id=":10300697367_4" function="internal">
        <lane id=":10300697367_4_0" index="0" allow="pedestrian delivery bicycle" speed="5.26" length="5.57" shape="801.30,1296.53 802.80,1295.81 803.73,1294.87 804.07,1293.72 803.83,1292.35"/>
    </edge>
    <edge id=":10300697367_5" function="internal">
        <lane id=":10300697367_5_0" index="0" allow="pedestrian delivery bicycle" speed="6.95" length="11.89" shape="801.30,1296.53 804.89,1295.71 807.74,1295.98 809.86,1297.35 811.24,1299.81"/>
    </edge>
    <edge id=":10300697367_6" function="internal">
        <lane id=":10300697367_6_0" index="0" allow="pedestrian delivery bicycle" speed="3.65" length="4.67" shape="801.30,1296.53 802.70,1296.90 803.34,1297.52 803.23,1298.41 802.35,1299.56"/>
    </edge>
    <edge id=":10300697374_0" function="internal">
        <lane id=":10300697374_0_0" index="0" allow="pedestrian delivery bicycle" speed="5.47" length="5.57" shape="796.79,1272.65 796.11,1271.46 795.11,1270.79 793.80,1270.63 792.16,1270.99"/>
    </edge>
    <edge id=":10300697374_1" function="internal">
        <lane id=":10300697374_1_0" index="0" disallow="tram rail_urban rail rail_electric rail_fast ship container cable_car subway aircraft wheelchair scooter drone" speed="8.33" length="9.37" width="4.55" shape="796.79,1272.65 793.69,1263.80"/>
    </edge>
    <edge id=":10300697374_2" function="internal">
        <lane id=":10300697374_2_0" index="0" disallow="tram rail_urban rail rail_electric rail_fast ship container cable_car subway aircraft wheelchair scooter drone" speed="8.33" length="9.31" width="4.55" shape="798.00,1262.33 801.07,1271.12"/>
    </edge>
    <edge id=":10300697374_3" function="internal">
        <lane id=":10300697374_3_0" index="0" allow="pedestrian delivery bicycle" speed="6.95" length="4.01" shape="798.00,1262.33 798.40,1265.11 797.99,1266.24"/>
    </edge>
    <edge id=":10300697374_7" function="internal">
        <lane id=":10300697374_7_0" index="0" allow="pedestrian delivery bicycle" speed="6.95" length="7.82" shape="797.99,1266.24 797.56,1267.47 795.48,1269.43 792.16,1270.99"/>
    </edge>
    <edge id=":10300697374_4" function="internal">
        <lane id=":10300697374_4_0" index="0" allow="pedestrian delivery bicycle" speed="5.27" length="5.55" shape="791.13,1267.96 792.63,1267.24 793.55,1266.31 793.91,1265.16 793.69,1263.80"/>
    </edge>
    <edge id=":10300697374_5" function="internal">
        <lane id=":10300697374_5_0" index="0" allow="pedestrian delivery bicycle" speed="6.95" length="11.79" shape="791.13,1267.96 794.69,1267.15 797.54,1267.40 799.67,1268.73 801.07,1271.12"/>
    </edge>
    <edge id=":10300697374_6" function="internal">
        <lane id=":10300697374_6_0" index="0" allow="pedestrian delivery bicycle" speed="3.65" length="4.67" shape="791.13,1267.96 792.52,1268.33 793.16,1268.95 793.04,1269.84 792.16,1270.99"/>
    </edge>
    <edge id=":10301769002_0" function="internal">
        <lane id=":10301769002_0_0" index="0" disallow="tram rail_urban rail rail_electric rail_fast ship container cable_car subway aircraft wheelchair scooter drone" speed="8.33" length="5.78" width="4.55" shape="817.49,1332.47 815.63,1327.00"/>
    </edge>
    <edge id=":10301769002_1" function="internal">
        <lane id=":10301769002_1_0" index="0" disallow="tram rail_urban rail rail_electric rail_fast ship container cable_car subway aircraft wheelchair scooter drone" speed="8.33" length="5.76" width="4.55" shape="819.94,1325.55 821.79,1331.00"/>
    </edge>
    <edge id=":10301777692_0" function="internal">
        <lane id=":10301777692_0_0" index="0" allow="emergency authority pedestrian delivery bicycle" speed="3.65" length="4.67" shape="1057.17,1089.33 1056.00,1088.49 1055.62,1087.68 1056.05,1086.89 1057.27,1086.13"/>
    </edge>
    <edge id=":10315385453_0" function="internal">
        <lane id=":10315385453_0_0" index="0" allow="tram" speed="13.89" length="5.10" shape="1190.61,1086.75 1195.63,1085.88"/>
    </edge>
    <edge id=":10315421457_0" function="internal">
        <lane id=":10315421457_0_0" index="0" allow="tram" speed="13.89" length="4.59" shape="1385.95,1178.75 1382.27,1181.49"/>
    </edge>
    <edge id=":10555616512_0" function="internal">
        <lane id=":10555616512_0_0" index="0" allow="pedestrian delivery bicycle" speed="5.56" length="4.99" shape="1101.45,881.67 1098.47,885.67"/>
    </edge>
    <edge id=":10555616512_1" function="internal">
        <lane id=":10555616512_1_0" index="0" allow="pedestrian delivery bicycle" speed="3.65" length="4.68" shape="1101.45,881.67 1100.08,882.14 1099.21,881.97 1098.82,881.16 1098.91,879.72"/>
    </edge>
    <edge id=":10555616512_2" function="internal">
        <lane id=":10555616512_2_0" index="0" allow="pedestrian delivery bicycle" speed="5.56" length="5.00" shape="1095.93,883.73 1098.91,879.72"/>
    </edge>
    <edge id=":10555616512_3" function="internal">
        <lane id=":10555616512_3_0" index="0" allow="pedestrian delivery bicycle" speed="3.65" length="4.67" shape="1095.93,883.73 1097.29,883.26 1098.17,883.43 1098.56,884.23 1098.47,885.67"/>
    </edge>
    <edge id=":10555616513_0" function="internal">
        <lane id=":10555616513_0_0" index="0" allow="pedestrian delivery bicycle" speed="5.56" length="5.00" shape="1043.69,843.03 1040.65,847.00"/>
    </edge>
    <edge id=":10555616513_1" function="internal">
        <lane id=":10555616513_1_0" index="0" allow="pedestrian delivery bicycle" speed="3.65" length="1.44" shape="1043.69,843.03 1042.33,843.51"/>
    </edge>
    <edge id=":10555616513_4" function="internal">
        <lane id=":10555616513_4_0" index="0" allow="pedestrian delivery bicycle" speed="3.65" length="3.23" shape="1042.33,843.51 1041.45,843.36 1041.05,842.56 1041.12,841.12"/>
    </edge>
    <edge id=":10555616513_2" function="internal">
        <lane id=":10555616513_2_0" index="0" allow="pedestrian delivery bicycle" speed="5.56" length="5.00" shape="1038.08,845.09 1041.12,841.12"/>
    </edge>
    <edge id=":10555616513_3" function="internal">
        <lane id=":10555616513_3_0" index="0" allow="pedestrian delivery bicycle" speed="3.65" length="1.44" shape="1038.08,845.09 1039.44,844.60"/>
    </edge>
    <edge id=":10555616513_5" function="internal">
        <lane id=":10555616513_5_0" index="0" allow="pedestrian delivery bicycle" speed="3.65" length="3.23" shape="1039.44,844.60 1040.32,844.76 1040.73,845.55 1040.65,847.00"/>
    </edge>
    <edge id=":10567752801_0" function="internal">
        <lane id=":10567752801_0_0" index="0" allow="bicycle" speed="5.56" length="5.21" width="2.00" shape="1694.03,376.49 1695.13,377.57 1696.05,378.15 1696.93,378.76 1697.96,379.91"/>
        <lane id=":10567752801_0_1" index="1" allow="bicycle" speed="5.56" length="5.21" width="2.00" shape="1694.03,376.49 1694.87,377.74 1695.24,378.74 1695.57,379.76 1696.34,381.08"/>
    </edge>
    <edge id=":10567768826_0" function="internal">
        <lane id=":10567768826_0_0" index="0" allow="bicycle" speed="5.56" length="6.08" width="2.00" shape="1700.65,524.81 1700.54,523.01 1700.59,521.75 1700.94,520.56 1701.77,518.99"/>
    </edge>
    <edge id=":10567768863_0" function="internal">
        <lane id=":10567768863_0_0" index="0" allow="bicycle" speed="5.56" length="8.83" width="2.00" shape="1725.22,545.44 1726.53,547.69 1727.62,549.13 1728.98,550.32 1731.11,551.83"/>
    </edge>
    <edge id=":10567768864_0" function="internal">
        <lane id=":10567768864_0_0" index="0" allow="bicycle" speed="5.56" length="3.97" width="2.00" shape="1713.55,569.53 1712.63,568.80 1712.02,568.26 1711.52,567.62 1710.91,566.62"/>
    </edge>
    <edge id=":10567768960_0" function="internal">
        <lane id=":10567768960_0_0" index="0" allow="bicycle" speed="5.56" length="5.05" width="2.00" shape="1758.62,607.91 1754.63,604.81"/>
    </edge>
    <edge id=":10572303254_0" function="internal">
        <lane id=":10572303254_0_0" index="0" disallow="pedestrian tram rail_urban rail rail_electric rail_fast ship container cable_car subway aircraft wheelchair scooter drone" speed="8.33" length="2.53" shape="1627.30,1217.88 1624.83,1217.36"/>
    </edge>
    <edge id=":10572303254_1" function="internal">
        <lane id=":10572303254_1_0" index="0" disallow="pedestrian tram rail_urban rail rail_electric rail_fast ship container cable_car subway aircraft wheelchair scooter drone" speed="8.33" length="2.40" width="5.50" shape="1623.99,1214.27 1625.73,1212.61"/>
    </edge>
    <edge id=":10572308474_0" function="internal">
        <lane id=":10572308474_0_0" index="0" disallow="pedestrian tram rail_urban rail rail_electric rail_fast ship container cable_car subway aircraft wheelchair scooter drone" speed="8.33" length="2.30" width="5.50" shape="1648.75,1209.19 1647.33,1211.00"/>
    </edge>
    <edge id=":10572308474_1" function="internal">
        <lane id=":10572308474_1_0" index="0" disallow="pedestrian tram rail_urban rail rail_electric rail_fast ship container cable_car subway aircraft wheelchair scooter drone" speed="8.33" length="2.29" shape="1645.28,1205.90 1647.55,1206.23"/>
    </edge>
    <edge id=":10651746550_0" function="internal">
        <lane id=":10651746550_0_0" index="0" disallow="pedestrian tram rail_urban rail rail_electric rail_fast ship container cable_car subway aircraft wheelchair scooter drone" speed="13.89" length="8.08" shape="1389.35,785.76 1387.39,784.37 1385.83,783.71 1384.30,783.03 1382.41,781.58"/>
        <lane id=":10651746550_0_1" index="1" disallow="pedestrian tram rail_urban rail rail_electric rail_fast ship container cable_car subway aircraft wheelchair scooter drone" speed="13.89" length="8.08" shape="1391.46,783.35 1389.53,781.99 1387.99,781.35 1386.48,780.69 1384.62,779.26"/>
    </edge>
    <edge id=":10710834046_0" function="internal">
        <lane id=":10710834046_0_0" index="0" disallow="pedestrian tram rail_urban rail rail_electric rail_fast ship container cable_car subway aircraft wheelchair scooter drone" speed="3.65" length="4.67" shape="1460.26,239.92 1461.63,239.49 1462.51,239.68 1462.88,240.49 1462.76,241.92"/>
    </edge>
    <edge id=":10731260254_0" function="internal">
        <lane id=":10731260254_0_0" index="0" allow="subway" speed="19.44" length="5.00" shape="1584.29,649.78 1579.72,647.75"/>
    </edge>
    <edge id=":10753500554_0" function="internal">
        <lane id=":10753500554_0_0" index="0" allow="pedestrian delivery bicycle" speed="3.65" length="4.67" shape="610.40,1275.70 609.00,1275.36 608.35,1274.75 608.45,1273.86 609.30,1272.70"/>
    </edge>