<?xml version="1.0" encoding="UTF-8"?>

<!-- generated on 2025-04-02 00:29:50 by Eclipse SUMO netconvert Version 1.22.0
<netconvertConfiguration xmlns:xsi="http://www.w3.org/2001/XMLSchema-instance" xsi:noNamespaceSchemaLocation="http://sumo.dlr.de/xsd/netconvertConfiguration.xsd">

    <input>
        <type-files value="C:\Program%20Files%20(x86)\Eclipse\Sumo\data\typemap\osmNetconvert.typ.xml"/>
        <osm-files value="osm_bbox.osm.xml"/>
    </input>

    <output>
        <output-file value="osm.net.xml"/>
        <output.street-names value="true"/>
        <output.original-names value="true"/>
    </output>

    <projection>
        <proj.utm value="true"/>
    </projection>

    <processing>
        <geometry.remove value="true"/>
        <roundabouts.guess value="true"/>
    </processing>

    <tls_building>
        <tls.discard-simple value="true"/>
        <tls.join value="true"/>
        <tls.guess-signals value="true"/>
        <tls.default-type value="actuated"/>
    </tls_building>

    <ramp_guessing>
        <ramps.guess value="true"/>
    </ramp_guessing>

    <junctions>
        <junctions.join value="true"/>
        <junctions.corner-detail value="5"/>
    </junctions>

    <report>
        <verbose value="true"/>
    </report>

</netconvertConfiguration>
-->

<net version="1.20" junctionCornerDetail="5" limitTurnSpeed="5.50" xmlns:xsi="http://www.w3.org/2001/XMLSchema-instance" xsi:noNamespaceSchemaLocation="http://sumo.dlr.de/xsd/net_file.xsd">

    <location netOffset="-504636.45,-4064647.38" convBoundary="0.00,0.00,4505.61,6616.22" origBoundary="3.051954,36.727489,5.364165,43.312259" projParameter="+proj=utm +zone=31 +ellps=WGS84 +datum=WGS84 +units=m +no_defs"/>

    <type id="highway.footway" priority="1" numLanes="1" speed="2.78" allow="pedestrian" oneway="1" width="2.00"/>
    <type id="highway.pedestrian" priority="1" numLanes="1" speed="2.78" allow="pedestrian" oneway="1" width="2.00"/>
    <type id="highway.primary" priority="12" numLanes="2" speed="27.78" disallow="tram rail_urban rail rail_electric rail_fast ship container cable_car subway aircraft wheelchair scooter drone" oneway="0"/>
    <type id="highway.primary_link" priority="7" numLanes="1" speed="22.22" disallow="tram rail_urban rail rail_electric rail_fast ship container cable_car subway aircraft wheelchair scooter drone" oneway="0"/>
    <type id="highway.residential" priority="3" numLanes="1" speed="13.89" disallow="tram rail_urban rail rail_electric rail_fast ship container cable_car subway aircraft wheelchair scooter drone" oneway="0"/>
    <type id="highway.secondary" priority="11" numLanes="1" speed="27.78" disallow="tram rail_urban rail rail_electric rail_fast ship container cable_car subway aircraft wheelchair scooter drone" oneway="0"/>
    <type id="highway.service" priority="1" numLanes="1" speed="5.56" allow="pedestrian delivery bicycle" oneway="0"/>
    <type id="highway.steps" priority="1" numLanes="1" speed="1.39" allow="pedestrian" oneway="1" width="2.00"/>
    <type id="highway.tertiary" priority="10" numLanes="1" speed="22.22" disallow="tram rail_urban rail rail_electric rail_fast ship container cable_car subway aircraft wheelchair scooter drone" oneway="0"/>
    <type id="highway.unclassified" priority="4" numLanes="1" speed="13.89" disallow="tram rail_urban rail rail_electric rail_fast ship container cable_car subway aircraft wheelchair scooter drone" oneway="0"/>
    <type id="railway.rail" priority="20" numLanes="1" speed="44.44" allow="rail" oneway="1"/>
    <type id="railway.subway" priority="18" numLanes="1" speed="27.78" allow="subway" oneway="1"/>

    <edge id=":10280110276_0" function="internal">
        <lane id=":10280110276_0_0" index="0" disallow="tram rail_urban rail rail_electric rail_fast ship container cable_car subway aircraft wheelchair scooter drone" speed="13.89" length="13.87" shape="786.39,5233.32 785.60,5237.24 785.15,5239.95 784.85,5242.68 784.50,5246.67"/>
        <lane id=":10280110276_0_1" index="1" disallow="tram rail_urban rail rail_electric rail_fast ship container cable_car subway aircraft wheelchair scooter drone" speed="13.89" length="13.87" shape="783.26,5232.67 782.45,5236.70 781.99,5239.48 781.67,5242.29 781.31,5246.39"/>
        <lane id=":10280110276_0_2" index="2" disallow="tram rail_urban rail rail_electric rail_fast ship container cable_car subway aircraft wheelchair scooter drone" speed="13.89" length="13.87" shape="780.13,5232.02 779.29,5236.16 778.82,5239.02 778.50,5241.90 778.12,5246.11"/>
    </edge>
    <edge id=":10280110276_3" function="internal">
        <lane id=":10280110276_3_0" index="0" disallow="tram rail_urban rail rail_electric rail_fast ship container cable_car subway aircraft wheelchair scooter drone" speed="7.89" length="11.94" shape="780.13,5232.02 779.02,5235.69 777.46,5238.29 775.43,5239.81 772.93,5240.26"/>
    </edge>
    <edge id=":10280110276_4" function="internal">
        <lane id=":10280110276_4_0" index="0" disallow="tram rail_urban rail rail_electric rail_fast ship container cable_car subway aircraft wheelchair scooter drone" speed="7.90" length="14.41" shape="773.03,5237.07 776.95,5237.75 779.64,5239.54 781.09,5242.42 781.31,5246.39"/>
        <lane id=":10280110276_4_1" index="1" disallow="tram rail_urban rail rail_electric rail_fast ship container cable_car subway aircraft wheelchair scooter drone" speed="7.22" length="11.83" shape="773.03,5237.07 775.55,5237.70 777.24,5239.42 778.10,5242.22 778.12,5246.11"/>
    </edge>
    <edge id=":10280110276_6" function="internal">
        <lane id=":10280110276_6_0" index="0" disallow="tram rail_urban rail rail_electric rail_fast ship container cable_car subway aircraft wheelchair scooter drone" speed="3.65" length="4.67" shape="773.03,5237.07 774.20,5237.90 774.58,5238.72 774.15,5239.50 772.93,5240.26"/>
    </edge>
    <edge id=":1038117353_0" function="internal">
        <lane id=":1038117353_0_0" index="0" disallow="tram rail_urban rail rail_electric rail_fast ship container cable_car subway aircraft wheelchair scooter drone" speed="27.78" length="14.46" shape="148.62,5164.49 144.84,5167.12 141.99,5169.12 139.66,5171.06 137.41,5173.53"/>
    </edge>
    <edge id=":1038117353_1" function="internal">
        <lane id=":1038117353_1_0" index="0" disallow="tram rail_urban rail rail_electric rail_fast ship container cable_car subway aircraft wheelchair scooter drone" speed="10.35" length="15.75" shape="139.92,5158.83 141.02,5162.52 140.97,5166.21 139.77,5169.87 137.41,5173.53"/>
    </edge>
    <edge id=":10629942344_0" function="internal">
        <lane id=":10629942344_0_0" index="0" allow="pedestrian delivery bicycle" speed="5.52" length="5.57" shape="881.11,5147.58 879.44,5147.49 878.12,5147.82 877.16,5148.57 876.56,5149.75"/>
    </edge>
    <edge id=":10629942344_1" function="internal">
        <lane id=":10629942344_1_0" index="0" allow="pedestrian delivery bicycle" speed="3.65" length="4.67" shape="881.11,5147.58 880.06,5146.60 879.79,5145.75 880.32,5145.02 881.63,5144.43"/>
    </edge>
    <edge id=":10629942344_2" function="internal">
        <lane id=":10629942344_2_0" index="0" allow="pedestrian delivery bicycle" speed="4.91" length="5.17" shape="879.31,5140.70 879.10,5142.13 879.41,5143.23 880.25,5143.99 881.63,5144.43"/>
    </edge>
    <edge id=":10629942344_3" function="internal">
        <lane id=":10629942344_3_0" index="0" disallow="tram rail_urban rail rail_electric rail_fast ship container cable_car subway aircraft wheelchair scooter drone" speed="16.67" length="9.46" shape="879.31,5140.70 876.56,5149.75"/>
        <lane id=":10629942344_3_1" index="1" disallow="tram rail_urban rail rail_electric rail_fast ship container cable_car subway aircraft wheelchair scooter drone" speed="16.67" length="9.46" shape="876.25,5139.77 873.50,5148.82"/>
    </edge>
    <edge id=":10629942346_0" function="internal">
        <lane id=":10629942346_0_0" index="0" allow="pedestrian delivery bicycle" speed="3.65" length="4.67" shape="950.24,5154.62 951.32,5155.57 951.61,5156.42 951.10,5157.15 949.81,5157.79"/>
    </edge>
    <edge id=":10629942347_0" function="internal">
        <lane id=":10629942347_0_0" index="0" allow="pedestrian delivery bicycle" speed="3.65" length="4.67" shape="910.30,5089.17 910.81,5087.82 911.50,5087.25 912.37,5087.46 913.42,5088.45"/>
    </edge>
    <edge id=":10629942353_0" function="internal">
        <lane id=":10629942353_0_0" index="0" allow="pedestrian delivery bicycle" speed="6.26" length="6.38" shape="888.95,5124.14 886.89,5124.30 885.30,5124.79 884.20,5125.59 883.57,5126.72"/>
    </edge>
    <edge id=":10629942353_1" function="internal">
        <lane id=":10629942353_1_0" index="0" allow="pedestrian delivery bicycle" speed="3.65" length="4.67" shape="888.95,5124.14 887.75,5123.34 887.35,5122.54 887.74,5121.74 888.94,5120.94"/>
    </edge>
    <edge id=":10629942353_2" function="internal">
        <lane id=":10629942353_2_0" index="0" allow="pedestrian delivery bicycle" speed="4.53" length="4.67" shape="886.04,5118.43 885.94,5119.53 886.39,5120.32 887.39,5120.78 888.94,5120.94"/>
    </edge>
    <edge id=":10629942353_3" function="internal">
        <lane id=":10629942353_3_0" index="0" disallow="tram rail_urban rail rail_electric rail_fast ship container cable_car subway aircraft wheelchair scooter drone" speed="16.67" length="8.63" shape="886.04,5118.43 883.57,5126.72"/>
        <lane id=":10629942353_3_1" index="1" disallow="tram rail_urban rail rail_electric rail_fast ship container cable_car subway aircraft wheelchair scooter drone" speed="16.67" length="8.63" shape="882.96,5117.53 880.51,5125.79"/>
    </edge>
    <edge id=":10629942358_0" function="internal">
        <lane id=":10629942358_0_0" index="0" allow="pedestrian delivery bicycle" speed="3.65" length="4.67" shape="467.86,5368.29 466.85,5367.26 466.63,5366.39 467.19,5365.69 468.54,5365.17"/>
    </edge>
    <edge id=":11920406189_0" function="internal">
        <lane id=":11920406189_0_0" index="0" disallow="tram rail_urban rail rail_electric rail_fast ship container cable_car subway aircraft wheelchair scooter drone" speed="7.76" length="8.39" shape="536.47,4930.83 538.01,4932.77 538.93,4934.68 539.23,4936.56 538.91,4938.42"/>
    </edge>
    <edge id=":11920406194_0" function="internal">
        <lane id=":11920406194_0_0" index="0" disallow="tram rail_urban rail rail_electric rail_fast ship container cable_car subway aircraft wheelchair scooter drone" speed="13.89" length="5.31" shape="596.02,4994.69 600.66,4992.11"/>
    </edge>
    <edge id=":11959057993_0" function="internal">
        <lane id=":11959057993_0_0" index="0" allow="pedestrian delivery bicycle" speed="3.65" length="4.67" shape="837.76,5362.56 838.47,5361.31 839.24,5360.85 840.06,5361.19 840.95,5362.33"/>
    </edge>
    <edge id=":11959057994_0" function="internal">
        <lane id=":11959057994_0_0" index="0" allow="pedestrian delivery bicycle" speed="3.65" length="4.67" shape="832.13,5486.34 831.21,5487.44 830.37,5487.75 829.62,5487.26 828.95,5485.98"/>
    </edge>
    <edge id=":12113875519_0" function="internal">
        <lane id=":12113875519_0_0" index="0" allow="pedestrian delivery bicycle" speed="5.02" length="5.02" shape="886.18,5274.29 884.80,5274.36 883.79,5274.86 883.14,5275.78 882.84,5277.13"/>
    </edge>
    <edge id=":12113875519_1" function="internal">
        <lane id=":12113875519_1_0" index="0" allow="pedestrian delivery bicycle" speed="5.56" length="10.17" shape="886.18,5274.29 883.45,5273.65 881.56,5272.31 880.52,5270.27 880.31,5267.53"/>
    </edge>
    <edge id=":12113875519_2" function="internal">
        <lane id=":12113875519_2_0" index="0" allow="pedestrian delivery bicycle" speed="3.65" length="4.67" shape="886.18,5274.29 885.06,5273.38 884.73,5272.55 885.20,5271.79 886.47,5271.10"/>
    </edge>
    <edge id=":12113875519_3" function="internal">
        <lane id=":12113875519_3_0" index="0" allow="pedestrian delivery bicycle" speed="5.11" length="5.08" shape="883.51,5267.75 883.61,5269.11 884.14,5270.12 885.09,5270.78 886.47,5271.10"/>
    </edge>
    <edge id=":12113875519_4" function="internal">
        <lane id=":12113875519_4_0" index="0" allow="pedestrian delivery bicycle" speed="5.56" length="9.40" shape="883.51,5267.75 882.84,5277.13"/>
    </edge>
    <edge id=":12113875519_5" function="internal">
        <lane id=":12113875519_5_0" index="0" allow="pedestrian delivery bicycle" speed="3.65" length="4.67" shape="883.51,5267.75 882.62,5268.89 881.80,5269.23 881.03,5268.78 880.31,5267.53"/>
    </edge>
    <edge id=":12113875519_6" function="internal">
        <lane id=":12113875519_6_0" index="0" allow="pedestrian delivery bicycle" speed="5.56" length="9.40" shape="879.65,5276.91 880.31,5267.53"/>
    </edge>
    <edge id=":12113875519_7" function="internal">
        <lane id=":12113875519_7_0" index="0" allow="pedestrian delivery bicycle" speed="5.56" length="10.26" shape="879.65,5276.91 880.25,5274.15 881.58,5272.26 883.66,5271.25 886.47,5271.10"/>
    </edge>
    <edge id=":12113875519_8" function="internal">
        <lane id=":12113875519_8_0" index="0" allow="pedestrian delivery bicycle" speed="3.65" length="4.67" shape="879.65,5276.91 880.53,5275.76 881.36,5275.42 882.13,5275.88 882.84,5277.13"/>
    </edge>
    <edge id=":12113875521_0" function="internal">
        <lane id=":12113875521_0_0" index="0" allow="pedestrian delivery bicycle" speed="3.65" length="4.67" shape="894.86,5338.39 893.92,5339.49 893.08,5339.79 892.33,5339.29 891.69,5338.00"/>
    </edge>
    <edge id=":12113875522_0" function="internal">
        <lane id=":12113875522_0_0" index="0" allow="pedestrian delivery bicycle" speed="5.56" length="9.70" shape="896.60,5321.95 895.70,5331.62"/>
    </edge>
    <edge id=":12113875522_1" function="internal">
        <lane id=":12113875522_1_0" index="0" allow="pedestrian delivery bicycle" speed="5.56" length="10.33" shape="896.60,5321.95 896.03,5324.66 894.69,5326.55 892.58,5327.62 889.71,5327.86"/>
    </edge>
    <edge id=":12113875522_2" function="internal">
        <lane id=":12113875522_2_0" index="0" allow="pedestrian delivery bicycle" speed="3.65" length="4.67" shape="896.60,5321.95 895.73,5323.10 894.90,5323.45 894.13,5323.01 893.40,5321.76"/>
    </edge>
    <edge id=":12113875522_3" function="internal">
        <lane id=":12113875522_3_0" index="0" allow="pedestrian delivery bicycle" speed="5.14" length="5.21" shape="889.87,5324.67 891.35,5324.55 892.43,5324.03 893.11,5323.10 893.40,5321.76"/>
    </edge>
    <edge id=":12113875522_4" function="internal">
        <lane id=":12113875522_4_0" index="0" allow="pedestrian delivery bicycle" speed="5.56" length="10.52" shape="889.87,5324.67 892.73,5325.23 894.65,5326.58 895.64,5328.70 895.70,5331.62"/>
    </edge>
    <edge id=":12113875522_5" function="internal">
        <lane id=":12113875522_5_0" index="0" allow="pedestrian delivery bicycle" speed="3.65" length="4.67" shape="889.87,5324.67 891.03,5325.53 891.38,5326.35 890.94,5327.13 889.71,5327.86"/>
    </edge>
    <edge id=":12113875522_6" function="internal">
        <lane id=":12113875522_6_0" index="0" allow="pedestrian delivery bicycle" speed="4.97" length="5.09" shape="892.53,5331.22 892.50,5329.82 892.02,5328.79 891.09,5328.14 889.71,5327.86"/>
    </edge>
    <edge id=":12113875522_7" function="internal">
        <lane id=":12113875522_7_0" index="0" allow="pedestrian delivery bicycle" speed="5.56" length="9.50" shape="892.53,5331.22 893.40,5321.76"/>
    </edge>
    <edge id=":12113875522_8" function="internal">
        <lane id=":12113875522_8_0" index="0" allow="pedestrian delivery bicycle" speed="3.65" length="4.67" shape="892.53,5331.22 893.47,5330.13 894.31,5329.83 895.05,5330.33 895.70,5331.62"/>
    </edge>
    <edge id=":12113875524_0" function="internal">
        <lane id=":12113875524_0_0" index="0" allow="pedestrian delivery bicycle" speed="5.56" length="9.41" shape="863.88,5298.49 863.31,5307.89"/>
    </edge>
    <edge id=":12113875524_1" function="internal">
        <lane id=":12113875524_1_0" index="0" allow="pedestrian delivery bicycle" speed="5.56" length="10.19" shape="863.88,5298.49 863.32,5301.12 862.01,5303.00 859.94,5304.13 857.11,5304.50"/>
    </edge>
    <edge id=":12113875524_2" function="internal">
        <lane id=":12113875524_2_0" index="0" allow="pedestrian delivery bicycle" speed="3.65" length="4.67" shape="863.88,5298.49 863.01,5299.64 862.19,5299.99 861.41,5299.55 860.69,5298.30"/>
    </edge>
    <edge id=":12113875524_3" function="internal">
        <lane id=":12113875524_3_0" index="0" allow="pedestrian delivery bicycle" speed="5.24" length="5.25" shape="857.11,5301.30 858.61,5301.11 859.70,5300.55 860.39,5299.61 860.69,5298.30"/>
    </edge>
    <edge id=":12113875524_4" function="internal">
        <lane id=":12113875524_4_0" index="0" allow="pedestrian delivery bicycle" speed="5.56" length="10.46" shape="857.11,5301.30 859.98,5301.71 861.96,5302.95 863.07,5305.01 863.31,5307.89"/>
    </edge>
    <edge id=":12113875524_5" function="internal">
        <lane id=":12113875524_5_0" index="0" allow="pedestrian delivery bicycle" speed="3.65" length="4.67" shape="857.11,5301.30 858.31,5302.10 858.71,5302.90 858.31,5303.70 857.11,5304.50"/>
    </edge>
    <edge id=":12113875524_6" function="internal">
        <lane id=":12113875524_6_0" index="0" allow="pedestrian delivery bicycle" speed="4.98" length="5.07" shape="860.12,5307.69 860.00,5306.30 859.46,5305.30 858.50,5304.70 857.11,5304.50"/>
    </edge>
    <edge id=":12113875524_7" function="internal">
        <lane id=":12113875524_7_0" index="0" allow="pedestrian delivery bicycle" speed="5.56" length="9.41" shape="860.12,5307.69 860.69,5298.30"/>
    </edge>
    <edge id=":12113875524_8" function="internal">
        <lane id=":12113875524_8_0" index="0" allow="pedestrian delivery bicycle" speed="3.65" length="4.67" shape="860.12,5307.69 860.99,5306.54 861.81,5306.19 862.59,5306.64 863.31,5307.89"/>
    </edge>
    <edge id=":12113875525_0" function="internal">
        <lane id=":12113875525_0_0" index="0" allow="pedestrian delivery bicycle" speed="5.23" length="5.23" shape="851.69,5304.50 850.20,5304.68 849.12,5305.25 848.43,5306.18 848.14,5307.50"/>
    </edge>
    <edge id=":12113875525_1" function="internal">
        <lane id=":12113875525_1_0" index="0" allow="pedestrian delivery bicycle" speed="5.56" length="10.45" shape="851.69,5304.50 848.84,5304.08 846.85,5302.85 845.74,5300.80 845.49,5297.92"/>
    </edge>
    <edge id=":12113875525_2" function="internal">
        <lane id=":12113875525_2_0" index="0" allow="pedestrian delivery bicycle" speed="3.65" length="4.67" shape="851.69,5304.50 850.49,5303.70 850.09,5302.89 850.49,5302.10 851.69,5301.30"/>
    </edge>
    <edge id=":12113875525_3" function="internal">
        <lane id=":12113875525_3_0" index="0" allow="pedestrian delivery bicycle" speed="4.98" length="5.07" shape="848.68,5298.11 848.80,5299.50 849.34,5300.50 850.31,5301.10 851.69,5301.30"/>
    </edge>
    <edge id=":12113875525_4" function="internal">
        <lane id=":12113875525_4_0" index="0" allow="pedestrian delivery bicycle" speed="5.56" length="9.41" shape="848.68,5298.11 848.14,5307.50"/>
    </edge>
    <edge id=":12113875525_5" function="internal">
        <lane id=":12113875525_5_0" index="0" allow="pedestrian delivery bicycle" speed="3.65" length="4.67" shape="848.68,5298.11 847.82,5299.26 847.00,5299.61 846.22,5299.16 845.49,5297.92"/>
    </edge>
    <edge id=":12113875525_6" function="internal">
        <lane id=":12113875525_6_0" index="0" allow="pedestrian delivery bicycle" speed="5.56" length="9.41" shape="844.95,5307.32 845.49,5297.92"/>
    </edge>
    <edge id=":12113875525_7" function="internal">
        <lane id=":12113875525_7_0" index="0" allow="pedestrian delivery bicycle" speed="5.56" length="10.18" shape="844.95,5307.32 845.50,5304.68 846.81,5302.80 848.87,5301.67 851.69,5301.30"/>
    </edge>
    <edge id=":12113875525_8" function="internal">
        <lane id=":12113875525_8_0" index="0" allow="pedestrian delivery bicycle" speed="3.65" length="4.67" shape="844.95,5307.32 845.81,5306.16 846.64,5305.81 847.41,5306.26 848.14,5307.50"/>
    </edge>
    <edge id=":12113875530_0" function="internal">
        <lane id=":12113875530_0_0" index="0" allow="pedestrian delivery bicycle" speed="3.65" length="4.67" shape="845.32,5356.36 844.45,5357.51 843.63,5357.87 842.85,5357.42 842.12,5356.18"/>
    </edge>
    <edge id=":12113875532_0" function="internal">
        <lane id=":12113875532_0_0" index="0" allow="pedestrian delivery bicycle" speed="3.65" length="4.67" shape="860.15,5360.19 859.28,5361.34 858.46,5361.69 857.69,5361.25 856.96,5360.00"/>
    </edge>
    <edge id=":12113875534_0" function="internal">
        <lane id=":12113875534_0_0" index="0" allow="pedestrian delivery bicycle" speed="5.05" length="5.01" shape="864.88,5333.52 863.51,5333.64 862.50,5334.16 861.86,5335.09 861.59,5336.43"/>
    </edge>
    <edge id=":12113875534_1" function="internal">
        <lane id=":12113875534_1_0" index="0" allow="pedestrian delivery bicycle" speed="5.56" length="10.18" shape="864.88,5333.52 862.15,5332.97 860.25,5331.67 859.19,5329.64 858.96,5326.86"/>
    </edge>
    <edge id=":12113875534_2" function="internal">
        <lane id=":12113875534_2_0" index="0" allow="pedestrian delivery bicycle" speed="3.65" length="4.67" shape="864.88,5333.52 863.73,5332.65 863.38,5331.83 863.82,5331.06 865.06,5330.33"/>
    </edge>
    <edge id=":12113875534_3" function="internal">
        <lane id=":12113875534_3_0" index="0" allow="pedestrian delivery bicycle" speed="5.04" length="5.00" shape="862.15,5327.05 862.26,5328.42 862.79,5329.42 863.72,5330.05 865.06,5330.33"/>
    </edge>
    <edge id=":12113875534_4" function="internal">
        <lane id=":12113875534_4_0" index="0" allow="pedestrian delivery bicycle" speed="5.56" length="9.40" shape="862.15,5327.05 861.59,5336.43"/>
    </edge>
    <edge id=":12113875534_5" function="internal">
        <lane id=":12113875534_5_0" index="0" allow="pedestrian delivery bicycle" speed="3.65" length="4.67" shape="862.15,5327.05 861.28,5328.20 860.46,5328.55 859.68,5328.10 858.96,5326.86"/>
    </edge>
    <edge id=":12113875534_6" function="internal">
        <lane id=":12113875534_6_0" index="0" allow="pedestrian delivery bicycle" speed="5.56" length="9.40" shape="858.39,5336.24 858.96,5326.86"/>
    </edge>
    <edge id=":12113875534_7" function="internal">
        <lane id=":12113875534_7_0" index="0" allow="pedestrian delivery bicycle" speed="5.56" length="10.16" shape="858.39,5336.24 858.95,5333.52 860.25,5331.62 862.29,5330.56 865.06,5330.33"/>
    </edge>
    <edge id=":12113875534_8" function="internal">
        <lane id=":12113875534_8_0" index="0" allow="pedestrian delivery bicycle" speed="3.65" length="4.67" shape="858.39,5336.24 859.26,5335.09 860.08,5334.74 860.86,5335.19 861.59,5336.43"/>
    </edge>
    <edge id=":12113875535_0" function="internal">
        <lane id=":12113875535_0_0" index="0" allow="pedestrian delivery bicycle" speed="3.65" length="4.67" shape="876.90,5361.42 876.02,5362.56 875.19,5362.90 874.42,5362.44 873.71,5361.19"/>
    </edge>
    <edge id=":12113875536_0" function="internal">
        <lane id=":12113875536_0_0" index="0" allow="pedestrian delivery bicycle" speed="3.65" length="4.67" shape="873.57,5406.20 874.47,5405.07 875.31,5404.75 876.07,5405.22 876.75,5406.49"/>
    </edge>
    <edge id=":12113875537_0" function="internal">
        <lane id=":12113875537_0_0" index="0" allow="pedestrian delivery bicycle" speed="3.65" length="4.67" shape="869.06,5490.44 868.15,5491.57 867.32,5491.89 866.56,5491.42 865.87,5490.15"/>
    </edge>
    <edge id=":12113875538_0" function="internal">
        <lane id=":12113875538_0_0" index="0" allow="pedestrian delivery bicycle" speed="3.65" length="4.67" shape="855.97,5396.91 856.86,5395.78 857.69,5395.44 858.46,5395.90 859.16,5397.16"/>
    </edge>
    <edge id=":12113875539_0" function="internal">
        <lane id=":12113875539_0_0" index="0" allow="pedestrian delivery bicycle" speed="3.65" length="4.67" shape="852.18,5489.12 851.29,5490.26 850.46,5490.60 849.70,5490.14 848.99,5488.88"/>
    </edge>
    <edge id=":12189275049_0" function="internal">
        <lane id=":12189275049_0_0" index="0" disallow="tram rail_urban rail rail_electric rail_fast ship container cable_car subway aircraft wheelchair scooter drone" speed="3.65" length="4.67" shape="426.24,4969.51 427.66,4969.22 428.51,4969.50 428.79,4970.34 428.52,4971.76"/>
    </edge>
    <edge id=":12189275050_0" function="internal">
        <lane id=":12189275050_0_0" index="0" disallow="tram rail_urban rail rail_electric rail_fast ship container cable_car subway aircraft wheelchair scooter drone" speed="3.65" length="4.67" shape="454.40,4946.90 452.98,4947.14 452.14,4946.83 451.88,4945.97 452.21,4944.57"/>
    </edge>
    <edge id=":12441430629_0" function="internal">
        <lane id=":12441430629_0_0" index="0" disallow="tram rail_urban rail rail_electric rail_fast ship container cable_car subway aircraft wheelchair scooter drone" speed="8.33" length="5.04" shape="615.98,5051.70 611.55,5054.11"/>
        <lane id=":12441430629_0_1" index="1" disallow="tram rail_urban rail rail_electric rail_fast ship container cable_car subway aircraft wheelchair scooter drone" speed="8.33" length="5.04" shape="614.45,5048.89 610.02,5051.30"/>
        <lane id=":12441430629_0_2" index="2" disallow="tram rail_urban rail rail_electric rail_fast ship container cable_car subway aircraft wheelchair scooter drone" speed="8.33" length="5.04" shape="612.92,5046.08 608.49,5048.49"/>
    </edge>
    <edge id=":12451096776_0" function="internal">
        <lane id=":12451096776_0_0" index="0" disallow="tram rail_urban rail rail_electric rail_fast ship container cable_car subway aircraft wheelchair scooter drone" speed="13.89" length="13.65" shape="642.02,5063.67 648.34,5075.76"/>
        <lane id=":12451096776_0_1" index="1" disallow="tram rail_urban rail rail_electric rail_fast ship container cable_car subway aircraft wheelchair scooter drone" speed="13.89" length="13.65" shape="639.18,5065.15 645.50,5077.25"/>
    </edge>
    <edge id=":12623400435_0" function="internal">
        <lane id=":12623400435_0_0" index="0" disallow="tram rail_urban rail rail_electric rail_fast ship container cable_car subway aircraft wheelchair scooter drone" speed="13.89" length="9.43" shape="767.59,5352.12 765.79,5361.38"/>
        <lane id=":12623400435_0_1" index="1" disallow="tram rail_urban rail rail_electric rail_fast ship container cable_car subway aircraft wheelchair scooter drone" speed="13.89" length="9.43" shape="764.44,5351.51 762.64,5360.76"/>
        <lane id=":12623400435_0_2" index="2" disallow="tram rail_urban rail rail_electric rail_fast ship container cable_car subway aircraft wheelchair scooter drone" speed="13.89" length="9.43" shape="761.30,5350.90 759.50,5360.15"/>
    </edge>
    <edge id=":12623400435_3" function="internal">
        <lane id=":12623400435_3_0" index="0" disallow="tram rail_urban rail rail_electric rail_fast ship container cable_car subway aircraft wheelchair scooter drone" speed="6.30" length="7.90" shape="761.30,5350.90 760.59,5353.54 759.62,5355.37 758.39,5356.39 756.91,5356.62"/>
    </edge>
    <edge id=":12623400435_4" function="internal">
        <lane id=":12623400435_4_0" index="0" disallow="tram rail_urban rail rail_electric rail_fast ship container cable_car subway aircraft wheelchair scooter drone" speed="6.80" length="10.56" shape="757.27,5353.44 760.10,5354.18 761.94,5355.64 762.79,5357.84 762.64,5360.76"/>
        <lane id=":12623400435_4_1" index="1" disallow="tram rail_urban rail rail_electric rail_fast ship container cable_car subway aircraft wheelchair scooter drone" speed="6.00" length="7.99" shape="757.27,5353.44 758.71,5354.00 759.56,5355.31 759.83,5357.36 759.50,5360.15"/>
    </edge>
    <edge id=":12623400435_6" function="internal">
        <lane id=":12623400435_6_0" index="0" disallow="tram rail_urban rail rail_electric rail_fast ship container cable_car subway aircraft wheelchair scooter drone" speed="3.65" length="4.67" shape="757.27,5353.44 758.37,5354.37 758.68,5355.21 758.19,5355.96 756.91,5356.62"/>
    </edge>
    <edge id=":1468105691_0" function="internal">
        <lane id=":1468105691_0_0" index="0" disallow="tram rail_urban rail rail_electric rail_fast ship container cable_car subway aircraft wheelchair scooter drone" speed="10.01" length="6.50" shape="381.30,5336.41 381.48,5338.34 381.64,5339.72 382.13,5340.93 383.31,5342.38"/>
    </edge>
    <edge id=":1468105691_1" function="internal">
        <lane id=":1468105691_1_0" index="0" disallow="tram rail_urban rail rail_electric rail_fast ship container cable_car subway aircraft wheelchair scooter drone" speed="7.35" length="6.59" shape="377.86,5338.99 378.89,5339.07 380.15,5339.67 381.62,5340.77 383.31,5342.38"/>
    </edge>
    <edge id=":1468105692_0" function="internal">
        <lane id=":1468105692_0_0" index="0" disallow="tram rail_urban rail rail_electric rail_fast ship container cable_car subway aircraft wheelchair scooter drone" speed="13.89" length="5.84" shape="369.80,5346.35 369.39,5344.70 369.45,5343.47 369.49,5342.26 369.01,5340.64"/>
    </edge>
    <edge id=":1468105692_1" function="internal">
        <lane id=":1468105692_1_0" index="0" disallow="tram rail_urban rail rail_electric rail_fast ship container cable_car subway aircraft wheelchair scooter drone" speed="6.63" length="6.59" shape="369.80,5346.35 369.84,5345.56 370.46,5344.41 371.67,5342.92 373.46,5341.07"/>
    </edge>
    <edge id=":1468105692_2" function="internal">