<?xml version="1.0" encoding="UTF-8"?>

<!-- generated on 2025-04-02 00:29:51 by Eclipse SUMO polyconvert Version 1.22.0
<polyconvertConfiguration xmlns:xsi="http://www.w3.org/2001/XMLSchema-instance" xsi:noNamespaceSchemaLocation="http://sumo.dlr.de/xsd/polyconvertConfiguration.xsd">

    <input>
        <net-file value="osm.net.xml"/>
        <osm-files value="osm_bbox.osm.xml"/>
        <osm.keep-full-type value="true"/>
        <type-file value="C:\Program%20Files%20(x86)\Eclipse\Sumo\data\typemap\osmPolyconvert.typ.xml"/>
    </input>

    <output>
        <output-file value="osm.poly.xml"/>
    </output>

    <report>
        <verbose value="true"/>
    </report>

</polyconvertConfiguration>
-->

<additional xmlns:xsi="http://www.w3.org/2001/XMLSchema-instance" xsi:noNamespaceSchemaLocation="http://sumo.dlr.de/xsd/additional_file.xsd">
    <location netOffset="-504636.45,-4064647.38" convBoundary="0.00,0.00,187087.38,733558.33" origBoundary="3.051954,36.727489,5.364165,43.312259" projParameter="+proj=utm +zone=31 +ellps=WGS84 +datum=WGS84 +units=m +no_defs"/>

    <poly id="1006667495" type="natural.wood" color="140,196,107" fill="1" layer="-4.00" shape="516.937114,5328.337009 545.461762,5335.597940 538.243283,5363.758464 509.709799,5356.497552 516.937114,5328.337009"/>
    <poly id="1124100832" type="amenity.restaurant" color="237,199,199" fill="1" layer="-1.00" shape="645.095470,5247.836403 629.462861,5244.831664 631.962408,5228.925974 647.140578,5230.887702 645.095470,5247.836403"/>
    <poly id="1124100832#1" type="building.commercial" color="255,230,230" fill="1" layer="-1.00" shape="645.095470,5247.836403 629.462861,5244.831664 631.962408,5228.925974 647.140578,5230.887702 645.095470,5247.836403"/>
    <poly id="1124100833" type="building.commercial" color="255,230,230" fill="1" layer="-1.00" shape="645.095470,5247.836403 647.140578,5230.887702 666.914128,5233.440234 664.511928,5250.555102 645.095470,5247.836403"/>
    <poly id="1124100833#1" type="shop.stationery" color="237,199,255" fill="1" layer="-1.00" shape="645.095470,5247.836403 647.140578,5230.887702 666.914128,5233.440234 664.511928,5250.555102 645.095470,5247.836403"/>
    <poly id="1124100834" type="amenity.fast_food" color="237,199,199" fill="1" layer="-1.00" shape="643.230472,5262.156196 645.095470,5247.836403 664.511928,5250.555102 662.495166,5264.919169 643.230472,5262.156196"/>
    <poly id="1124100834#1" type="building.commercial" color="255,230,230" fill="1" layer="-1.00" shape="643.230472,5262.156196 645.095470,5247.836403 664.511928,5250.555102 662.495166,5264.919169 643.230472,5262.156196"/>
    <poly id="1124100835" type="building.commercial" color="255,230,230" fill="1" layer="-1.00" shape="635.319080,5197.867899 634.136952,5204.644937 627.516092,5203.642492 626.244398,5210.963028 637.763816,5212.955765 637.376003,5219.577992 616.906607,5216.614663 621.890268,5195.341531 635.319080,5197.867899"/>
    <poly id="1124100835#1" type="shop.shoes" color="237,199,255" fill="1" layer="-1.00" shape="635.319080,5197.867899 634.136952,5204.644937 627.516092,5203.642492 626.244398,5210.963028 637.763816,5212.955765 637.376003,5219.577992 616.906607,5216.614663 621.890268,5195.341531 635.319080,5197.867899"/>
    <poly id="1124100836" type="amenity.fast_food" color="237,199,199" fill="1" layer="-1.00" shape="621.890268,5195.341531 635.319080,5197.867899 637.174101,5185.256407 624.619219,5183.684564 621.890268,5195.341531"/>
    <poly id="1124100836#1" type="building.commercial" color="255,230,230" fill="1" layer="-1.00" shape="621.890268,5195.341531 635.319080,5197.867899 637.174101,5185.256407 624.619219,5183.684564 621.890268,5195.341531"/>
    <poly id="1124100837" type="amenity.cafe" color="237,199,199" fill="1" layer="-1.00" shape="624.619219,5183.684564 637.174101,5185.256407 640.761204,5185.713432 642.562555,5173.323767 627.455529,5171.595042 624.619219,5183.684564"/>
    <poly id="1124100837#1" type="building.commercial" color="255,230,230" fill="1" layer="-1.00" shape="624.619219,5183.684564 637.174101,5185.256407 640.761204,5185.713432 642.562555,5173.323767 627.455529,5171.595042 624.619219,5183.684564"/>
    <poly id="1124100838" type="building.commercial" color="255,230,230" fill="1" layer="-1.00" shape="595.444005,5319.943037 601.984309,5321.200545 605.860589,5301.135848 610.839439,5302.092896 612.155412,5295.282658 600.645151,5293.079196 595.444005,5319.943037"/>
    <poly id="1124100838#1" type="shop.sports" color="237,199,255" fill="1" layer="-1.00" shape="595.444005,5319.943037 601.984309,5321.200545 605.860589,5301.135848 610.839439,5302.092896 612.155412,5295.282658 600.645151,5293.079196 595.444005,5319.943037"/>
    <poly id="1172847689" type="building.yes" color="255,230,230" fill="1" layer="-1.00" shape="902.012185,5149.837992 904.063727,5137.548380 920.597923,5140.287977 920.024528,5143.770778 930.732041,5145.541523 931.314357,5142.069822 937.837016,5143.150089 938.105797,5141.519607 945.565363,5142.755792 943.236057,5156.675870 902.012185,5149.837992"/>
    <poly id="1172847693" type="building.yes" color="255,230,230" fill="1" layer="-1.00" shape="702.051034,5184.331631 720.941188,5186.928107 715.553415,5226.093791 696.654415,5223.508414 702.051034,5184.331631"/>
    <poly id="1172847701" type="building.yes" color="255,230,230" fill="1" layer="-1.00" shape="823.620073,5199.106589 824.302128,5193.094669 833.368097,5194.109925 832.694959,5200.121851 823.620073,5199.106589"/>
    <poly id="1172847712" type="building.yes" color="255,230,230" fill="1" layer="-1.00" shape="739.168432,5193.550934 751.749910,5195.344820 749.249186,5212.748017 741.129242,5211.589238 743.074241,5198.046021 738.612725,5197.410916 739.168432,5193.550934"/>
    <poly id="1172847716" type="building.yes" color="255,230,230" fill="1" layer="-1.00" shape="735.095286,5228.091690 734.279091,5234.658180 715.888570,5232.394774 716.704758,5225.817190 735.095286,5228.091690"/>
    <poly id="1172847717" type="building.yes" color="255,230,230" fill="1" layer="-1.00" shape="735.281067,5230.665362 738.076069,5213.539668 745.937151,5214.809211 743.142140,5231.923809 735.281067,5230.665362"/>
    <poly id="1172847719" type="building.yes" color="255,230,230" fill="1" layer="-1.00" shape="230.612779,4918.818590 234.202432,4915.037956 242.657945,4923.018580 245.131409,4920.424254 254.906963,4929.648049 248.852776,4936.011911 230.612779,4918.818590"/>
    <poly id="1172847720" type="building.yes" color="255,230,230" fill="1" layer="-1.00" shape="333.637805,5079.003998 340.353411,5086.096276 341.449117,5089.424787 343.045513,5091.122932 342.715922,5090.102192 368.570429,5117.416947 369.532495,5120.346039 365.371660,5124.259397 367.701248,5123.495351 346.727498,5143.184091 345.950971,5143.438775 337.022202,5151.819809 333.291318,5153.026764 328.630508,5157.405752 327.023908,5157.926184 324.865653,5155.650884 320.767934,5143.135705 316.139268,5138.252141 305.404927,5105.499662 333.637805,5079.003998"/>
    <poly id="1172847721" type="building.yes" color="255,230,230" fill="1" layer="-1.00" shape="603.775422,4830.828610 613.561950,4821.738440 622.756791,4831.539129 618.720741,4835.286046 642.880485,4861.080851 637.121087,4866.424072 603.775422,4830.828610"/>
    <poly id="1172847723" type="building.yes" color="255,230,230" fill="1" layer="-1.00" shape="278.789356,5051.151250 286.299162,5042.935732 294.808197,5050.650210 287.298390,5058.865720 278.789356,5051.151250"/>
    <poly id="1172847726" type="building.yes" color="255,230,230" fill="1" layer="-1.00" shape="305.924433,4963.388752 305.531566,4948.324361 329.486686,4928.060427 331.351857,4928.006047 336.996963,4934.631796 337.101862,4938.392351 339.527563,4941.233547 341.580138,4941.179279 339.526581,4942.919668 342.335757,4946.204805 342.370561,4947.735646 348.287323,4947.583796 356.750487,4957.505796 356.864100,4961.610237 347.783836,4969.281223 343.714397,4969.389778 337.107332,4974.976752 337.194673,4978.238117 326.391252,4987.372386 305.924433,4963.388752"/>
    <poly id="1172847727" type="building.yes" color="255,230,230" fill="1" layer="-1.00" shape="502.283157,5256.257542 507.525046,5235.406028 510.594375,5236.162195 512.007710,5230.561127 524.624059,5233.708035 515.929294,5268.246106 506.917651,5265.999906 508.948209,5257.925491 502.283157,5256.257542"/>
    <poly id="1172847729" type="building.yes" color="255,230,230" fill="1" layer="-1.00" shape="273.248622,5080.355684 280.496326,5077.830671 283.926424,5087.594404 276.678727,5090.119414 273.248622,5080.355684"/>
    <poly id="1172847734" type="building.yes" color="255,230,230" fill="1" layer="-1.00" shape="263.589123,5211.379556 256.678487,5217.665273 250.132500,5210.517692 257.043137,5204.231970 263.589123,5211.379556"/>
    <poly id="1172847735" type="building.yes" color="255,230,230" fill="1" layer="-1.00" shape="394.025668,5095.079695 369.267411,5115.853256 346.865969,5089.394667 347.374886,5088.962340 336.218700,5075.788558 342.236389,5070.744791 345.304122,5074.362867 344.464856,5075.072324 349.244801,5080.721402 347.432346,5082.251165 350.303875,5085.647271 363.366030,5074.684023 365.675737,5077.414230 364.506121,5078.400814 368.982844,5083.694753 377.991549,5076.134675 394.025668,5095.079695"/>
    <poly id="1172847736" type="building.yes" color="255,230,230" fill="1" layer="-1.00" shape="360.301074,5035.823780 346.683279,5050.724690 345.406697,5051.500448 344.236912,5052.775450 332.417406,5059.912397 333.995439,5062.509055 328.191164,5068.861915 318.085616,5059.715492 316.917688,5057.795742 308.908160,5050.536340 306.509888,5046.596970 300.096895,5040.791672 295.790687,5033.723003 321.159893,5005.961056 325.819873,5003.146165 328.102252,5006.885800 344.843815,5022.048456 347.164874,5020.652104 351.604776,5027.942734 360.301074,5035.823780"/>
    <poly id="1172847738" type="building.yes" color="255,230,230" fill="1" layer="-1.00" shape="264.199709,5064.842605 272.288222,5058.934731 281.187392,5071.020024 273.098885,5076.927890 264.199709,5064.842605"/>
    <poly id="1172847740" type="building.yes" color="255,230,230" fill="1" layer="-1.00" shape="516.751642,4970.180184 520.698297,4966.510815 521.858788,4965.912499 528.778833,4959.482796 532.242463,4957.687841 536.019471,4954.184769 538.902858,4952.688974 542.626300,4949.230245 547.255511,4953.171034 553.703843,4959.398069 567.234018,4971.963470 563.528431,4975.411106 567.327608,4979.473423 571.213951,4986.930224 577.456723,4993.589776 578.116438,4994.677283 573.732284,4998.690240 553.343381,5009.216087 516.751642,4970.180184"/>
    <poly id="1172847741" type="building.yes" color="255,230,230" fill="1" layer="-1.00" shape="432.631125,4958.914919 403.236048,4987.727984 370.655809,4954.773989 384.263948,4941.448306 386.422294,4943.634877 402.227076,4928.158492 432.631125,4958.914919"/>
    <poly id="1172847742" type="building.yes" color="255,230,230" fill="1" layer="-1.00" shape="368.946470,4917.345529 385.137226,4913.272844 390.292002,4918.999814 392.143922,4926.300035 366.187988,4949.402405 364.402904,4949.856169 355.511372,4939.956097 355.422351,4939.578886 343.587750,4926.404701 342.154253,4920.768671 345.519143,4919.916479 347.537036,4918.131699 365.566430,4913.583055 368.946470,4917.345529"/>
    <poly id="1172847743" type="building.yes" color="255,230,230" fill="1" layer="-1.00" shape="333.508234,4994.952978 367.444986,4966.852280 397.435483,5002.755449 363.498774,5030.856030 333.508234,4994.952978"/>
    <poly id="1172847746" type="building.yes" color="255,230,230" fill="1" layer="-1.00" shape="471.548137,5094.726362 477.832747,5091.124928 481.612582,5097.660914 475.327969,5101.273438 471.548137,5094.726362"/>
    <poly id="1172847748" type="building.yes" color="255,230,230" fill="1" layer="-1.00" shape="270.050893,5194.233630 257.297434,5196.500359 256.007577,5189.344694 268.769970,5187.077969 270.050893,5194.233630"/>
    <poly id="1172847750" type="building.yes" color="255,230,230" fill="1" layer="-1.00" shape="253.782683,5054.065422 259.911707,5057.119483 254.944291,5067.044787 248.806342,5064.001818 253.782683,5054.065422"/>
    <poly id="1172847751" type="building.yes" color="255,230,230" fill="1" layer="-1.00" shape="211.432125,5206.602026 215.380776,5214.702092 209.694748,5217.449905 208.001194,5213.976863 206.912187,5214.508705 204.657085,5209.881684 211.432125,5206.602026"/>
    <poly id="1173895228" type="building.yes" color="255,230,230" fill="1" layer="-1.00" shape="826.033419,5374.365030 826.359687,5366.522550 833.293188,5366.804310 832.957983,5374.657877 826.033419,5374.365030"/>
    <poly id="1173895230" type="building.yes" color="255,230,230" fill="1" layer="-1.00" shape="945.165146,5277.223782 944.768398,5283.502111 940.958120,5283.255577 941.345935,5276.988336 945.165146,5277.223782"/>
    <poly id="1173895237" type="building.yes" color="255,230,230" fill="1" layer="-1.00" shape="967.341914,5084.909443 974.464506,5082.961767 980.197829,5103.798017 973.075260,5105.734595 967.341914,5084.909443"/>
    <poly id="1173895241" type="building.yes" color="255,230,230" fill="1" layer="-1.00" shape="635.132953,5412.659813 643.404572,5413.574542 643.000754,5417.223861 634.720208,5416.320220 635.132953,5412.659813"/>
    <poly id="1173895250" type="building.yes" color="255,230,230" fill="1" layer="-1.00" shape="1030.862213,5072.039211 1020.321553,5074.239712 1000.465251,4980.325128 1011.336262,4978.047171 1013.017627,4986.035175 1012.696317,4986.101520 1030.862213,5072.039211"/>
    <poly id="1173895259" type="building.yes" color="255,230,230" fill="1" layer="-1.00" shape="197.072574,4956.282465 198.290828,4963.959444 201.789378,4963.406780 202.936498,4970.617817 193.128078,4972.154179 190.762685,4957.277258 197.072574,4956.282465"/>
    <poly id="1173895262" type="building.yes" color="255,230,230" fill="1" layer="-1.00" shape="515.415629,5335.723969 521.322693,5336.415295 520.515449,5343.225855 514.617313,5342.534535 515.415629,5335.723969"/>
    <poly id="1173895264" type="building.yes" color="255,230,230" fill="1" layer="-1.00" shape="181.004010,5297.768519 175.791624,5299.418424 174.268348,5294.658707 179.489661,5293.008807 181.004010,5297.768519"/>
    <poly id="1173895266" type="building.yes" color="255,230,230" fill="1" layer="-1.00" shape="482.239724,5435.995035 475.253245,5434.848280 474.706962,5438.098177 465.962718,5436.650869 464.413399,5445.923618 457.560766,5444.799144 461.366938,5421.927830 483.959244,5425.668564 482.239724,5435.995035"/>
    <poly id="1173895267" type="building.yes" color="255,230,230" fill="1" layer="-1.00" shape="428.872465,5367.908200 429.455859,5362.251162 443.670392,5363.690591 443.086983,5369.358721 428.872465,5367.908200"/>
    <poly id="1173895268" type="building.yes" color="255,230,230" fill="1" layer="-1.00" shape="142.086690,4948.564143 146.746611,4945.804619 148.788326,4949.200191 144.119476,4951.970802 142.086690,4948.564143"/>
    <poly id="1173895269" type="building.yes" color="255,230,230" fill="1" layer="-1.00" shape="135.411212,4949.026313 121.013420,4954.830963 118.821103,4949.427498 112.233653,4952.075037 108.276776,4942.322176 130.895522,4933.216404 134.388969,4941.815355 132.746564,4942.480012 135.411212,4949.026313"/>
    <poly id="1173895271" type="building.yes" color="255,230,230" fill="1" layer="-1.00" shape="452.122925,5255.783791 452.014280,5258.401653 446.758314,5258.176665 446.866958,5255.558803 452.122925,5255.783791"/>
    <poly id="1173895272" type="building.yes" color="255,230,230" fill="1" layer="-1.00" shape="348.127323,5420.496556 344.851289,5422.336068 341.677762,5416.721204 344.953790,5414.892783 348.127323,5420.496556"/>
    <poly id="1173895276" type="building.yes" color="255,230,230" fill="1" layer="-1.00" shape="532.682225,5292.716096 524.650714,5292.966375 524.449209,5286.776410 532.489649,5286.526135 532.682225,5292.716096"/>
    <poly id="1173895277" type="building.yes" color="255,230,230" fill="1" layer="-1.00" shape="185.904823,4947.069042 194.633587,4945.299111 196.119818,4952.532525 187.391055,4954.313548 185.904823,4947.069042"/>
    <poly id="1173895280" type="building.yes" color="255,230,230" fill="1" layer="-1.00" shape="139.667312,5093.890936 117.369811,5103.773368 112.895570,5093.753985 120.482794,5090.385964 118.798276,5086.602345 109.211592,5090.856689 104.942321,5081.314419 129.230405,5070.545632 139.667312,5093.890936"/>
    <poly id="1173895287" type="building.yes" color="255,230,230" fill="1" layer="-1.00" shape="251.852955,4948.670630 252.479777,4960.529303 249.140460,4963.522477 250.040954,4980.583878 200.451517,5025.115850 188.197567,5011.586668 219.402970,4983.561489 222.140938,4986.580316 220.828427,4987.766511 223.932046,4991.195984 223.420037,4981.378472 222.403332,4980.257510 222.164894,4975.842399 216.397008,4981.019506 214.336836,4978.755383 207.750687,4979.095525 174.357808,5009.094051 169.238594,5003.444881 172.354655,5000.651222 172.204533,4997.833540 203.651002,4969.597675 208.582927,4975.035994 207.938448,4962.733598 220.164795,4962.097153 215.928513,4957.424633 215.337008,4946.142814 226.706641,4945.550263 231.112374,4950.411464 237.157076,4944.990481 237.395494,4949.427779 251.852955,4948.670630"/>
    <poly id="1173895296" type="building.yes" color="255,230,230" fill="1" layer="-1.00" shape="135.174550,4973.297454 139.812172,4978.469340 135.946134,4981.905979 131.308511,4976.734096 135.174550,4973.297454"/>
    <poly id="1173895297" type="building.yes" color="255,230,230" fill="1" layer="-1.00" shape="167.349886,5188.173984 172.491341,5185.825181 177.687568,5197.131781 172.537201,5199.469483 167.349886,5188.173984"/>
    <poly id="1173895298" type="building.yes" color="255,230,230" fill="1" layer="-1.00" shape="169.789399,5055.437636 171.846878,5046.619935 179.930959,5048.488098 177.873471,5057.305797 169.789399,5055.437636"/>
    <poly id="1173895302" type="building.yes" color="255,230,230" fill="1" layer="-1.00" shape="158.114541,4964.136469 162.203074,4977.694294 142.665040,4983.529300 137.240348,4965.533576 163.142365,4957.783059 164.487401,4962.232070 158.114541,4964.136469"/>
    <poly id="1173895312" type="building.yes" color="255,230,230" fill="1" layer="-1.00" shape="485.232701,5415.153247 482.502444,5414.541500 480.435662,5423.603171 473.378049,5422.012658 476.939005,5406.373784 473.298663,5405.550729 475.830699,5394.437147 489.267858,5397.473566 485.232701,5415.153247"/>
    <poly id="1173895313" type="building.yes" color="255,230,230" fill="1" layer="-1.00" shape="147.171102,4984.574555 155.830525,4979.066236 165.281762,4993.769643 156.622342,4999.289045 147.171102,4984.574555"/>
    <poly id="1173895316" type="building.yes" color="255,230,230" fill="1" layer="-1.00" shape="150.747305,5004.676902 158.020501,5004.481309 158.475191,5021.154200 151.210933,5021.349797 150.747305,5004.676902"/>
    <poly id="1173895319" type="building.yes" color="255,230,230" fill="1" layer="-1.00" shape="150.670388,5030.456769 166.531572,5024.719549 171.601515,5038.610719 171.387296,5038.688249 174.559333,5047.397965 165.812043,5050.565614 167.469346,5055.114637 159.730681,5057.916793 158.198118,5053.711721 159.037146,5053.401591 150.670388,5030.456769"/>
    <poly id="1173895321" type="building.yes" color="255,230,230" fill="1" layer="-1.00" shape="107.700699,4999.405939 90.767948,5006.362895 88.207642,5004.753007 87.049070,5001.945862 94.757239,4989.803398 95.292804,4989.581836 103.265609,4983.041443 109.544710,4973.161153 112.579588,4971.909341 117.811479,4967.619298 120.685690,4966.433958 122.879534,4969.086384 124.555002,4973.136228 128.452194,4977.841792 123.896924,4985.016361 121.638107,4986.867618 121.414957,4986.956236 114.013533,4993.042121 112.432596,4995.526053 107.700699,4999.405939"/>
    <poly id="1173895325" type="building.yes" color="255,230,230" fill="1" layer="-1.00" shape="472.609231,5394.501777 469.524267,5405.060384 450.448869,5399.535823 453.524881,5388.988297 472.609231,5394.501777"/>
    <poly id="1173895331" type="building.yes" color="255,230,230" fill="1" layer="-1.00" shape="429.279303,5389.106995 429.710012,5385.102710 437.758622,5385.961642 437.327908,5389.965927 429.279303,5389.106995"/>
    <poly id="1173895334" type="building.yes" color="255,230,230" fill="1" layer="-1.00" shape="194.119727,5112.258134 173.313652,5120.100169 170.190503,5119.710159 171.230353,5111.402158 172.667828,5110.116190 171.046079,5105.844508 176.162050,5101.299297 183.541633,5102.201984 196.202127,5090.960932 198.226587,5093.213937 200.556916,5091.129790 199.552830,5099.260322 201.971046,5099.561200 206.399555,5095.614635 205.169894,5092.363717 209.713148,5090.657986 213.155616,5094.486992 211.177443,5089.305482 214.721010,5087.965253 217.351909,5090.895275 207.780619,5099.398100 209.806786,5098.633839 200.333720,5107.059077 199.699990,5107.291670 194.119727,5112.258134"/>
    <poly id="1173895338" type="building.yes" color="255,230,230" fill="1" layer="-1.00" shape="189.355879,5014.793172 200.154418,5029.719237 193.965717,5037.436397 189.675205,5034.017357 184.247210,5037.918994 182.273618,5040.380505 177.751179,5036.783854 177.332076,5036.206786 181.377494,5031.161795 183.645117,5029.521325 181.656616,5026.769163 176.019163,5022.295544 173.486711,5018.799852 181.646571,5012.936304 186.534743,5016.821580 189.355879,5014.793172"/>
    <poly id="1173895339" type="building.yes" color="255,230,230" fill="1" layer="-1.00" shape="250.278071,5423.978643 254.208376,5432.711015 224.217504,5446.105223 220.287169,5437.383958 250.278071,5423.978643"/>
    <poly id="1173895340" type="building.yes" color="255,230,230" fill="1" layer="-1.00" shape="144.365307,5070.798134 151.787592,5059.254578 153.697782,5058.434774 158.934280,5061.776677 156.951428,5064.859391 159.259752,5070.174189 163.898554,5073.127508 165.369105,5076.511671 162.236036,5077.863244 159.056331,5082.808894 142.453771,5089.976699 140.874798,5088.966361 138.816016,5084.228539 134.837349,5081.697133 132.350757,5075.982898 144.365307,5070.798134"/>
    <poly id="1173895344" type="building.yes" color="255,230,230" fill="1" layer="-1.00" shape="189.521642,4958.330383 193.707013,4974.151229 191.600621,4974.704684 193.016524,4980.052264 184.733773,4982.221794 184.226185,4980.302435 172.141228,4983.468193 168.401070,4969.344822 178.567089,4966.677157 177.213519,4961.551472 189.521642,4958.330383"/>
    <poly id="1173895345" type="building.yes" color="255,230,230" fill="1" layer="-1.00" shape="464.428626,5405.489962 474.787724,5407.526159 473.105009,5416.011229 462.736997,5413.975030 464.428626,5405.489962"/>
    <poly id="1173895352" type="building.yes" color="255,230,230" fill="1" layer="-1.00" shape="165.879468,5057.620739 167.636799,5058.853040 168.994316,5056.945824 172.250281,5059.232795 165.176888,5069.201338 160.163602,5065.670977 165.879468,5057.620739"/>
    <poly id="1173895353" type="building.yes" color="255,230,230" fill="1" layer="-1.00" shape="177.372074,4949.404832 184.860492,4947.445612 187.389520,4957.031308 179.910034,4958.990531 177.372074,4949.404832"/>
    <poly id="1173895354" type="building.yes" color="255,230,230" fill="1" layer="-1.00" shape="205.716551,5434.580270 199.840918,5425.735890 206.339720,5421.457709 214.854468,5434.285947 210.685594,5437.034622 208.046474,5433.050769 205.716551,5434.580270"/>
    <poly id="1173895355" type="building.yes" color="255,230,230" fill="1" layer="-1.00" shape="177.603200,4951.002340 179.292834,4961.541551 168.092116,4963.321201 166.402467,4952.781992 177.603200,4951.002340"/>
    <poly id="1289731374" type="amenity.parking" color="184,184,179" fill="1" layer="-1.00" shape="886.737471,5393.616998 845.325223,5390.018398 841.274116,5389.671918 836.955322,5389.291990 835.515561,5394.061020 829.425677,5456.033225 827.080937,5480.558157 825.957726,5492.704180 825.390507,5500.579786 843.361970,5501.356710 845.975982,5502.256914 846.694913,5494.392499 859.865413,5495.354957 859.381544,5498.460661 866.805601,5498.942438 866.077421,5507.283840 906.445049,5510.870772 907.209891,5501.098410 908.172723,5488.752622 877.816452,5486.314711 886.737471,5393.616998"/>
    <poly id="1289731374#1" type="building.yes" color="255,230,230" fill="1" layer="-1.00" shape="886.737471,5393.616998 845.325223,5390.018398 841.274116,5389.671918 836.955322,5389.291990 835.515561,5394.061020 829.425677,5456.033225 827.080937,5480.558157 825.957726,5492.704180 825.390507,5500.579786 843.361970,5501.356710 845.975982,5502.256914 846.694913,5494.392499 859.865413,5495.354957 859.381544,5498.460661 866.805601,5498.942438 866.077421,5507.283840 906.445049,5510.870772 907.209891,5501.098410 908.172723,5488.752622 877.816452,5486.314711 886.737471,5393.616998"/>
    <poly id="1289731380" type="man_made.bridge" color="255,230,230" fill="1" layer="-1.00" shape="845.325223,5390.018398 843.442028,5362.684253 839.355143,5362.448681 834.982715,5362.190741 836.955322,5389.291990 841.274116,5389.671918 845.325223,5390.018398"/>
    <poly id="1344777595" type="natural.tree_row" color="140,196,107" fill="0" layer="-4.00" shape="614.391077,5055.344423 632.263322,5088.312455 632.984731,5090.631318 632.983479,5092.661319 626.799858,5120.533982 625.897402,5122.385942 620.387719,5128.283976"/>
    <poly id="1346162628" type="tourism.museum" color="207,245,201" fill="1" layer="-2.00" shape="687.712251,5095.490673 685.922847,5088.578676 688.556005,5087.626328 688.280199,5086.283914 687.986574,5084.897117 667.297118,5090.918786 661.792306,5088.885367 653.957443,5073.893994 652.824629,5073.039138 652.120282,5071.995969 651.648233,5070.509227 651.711573,5069.100467 653.492450,5061.014841 655.264427,5052.895931 657.161653,5044.277918 657.984991,5040.517934 659.067862,5035.571169 659.621899,5034.362385 660.523829,5033.386769 661.568301,5032.799493 662.987431,5032.456493 689.223980,5018.185149 695.980683,5030.524677 697.113886,5030.758335 696.871338,5033.320645 708.355951,5034.248535 704.171428,5061.456817 702.773630,5070.507755 706.956768,5074.026823 699.598742,5081.521028 695.243058,5082.793992 693.219289,5093.941100 687.712251,5095.490673"/>
    <poly id="1346162629" type="landuse.commercial" color="209,209,204" fill="1" layer="-3.00" shape="708.355951,5034.248535 712.029733,5010.389994 707.721143,5007.647349 688.983371,5017.641447 689.223980,5018.185149 692.539935,5024.243944 695.178437,5029.059912 695.980683,5030.524677 697.113886,5030.758335 696.871338,5033.320645 701.038639,5033.656035 705.018542,5033.980218 708.355951,5034.248535"/>
    <poly id="1348461390" type="landuse.residential" color="235,235,227" fill="1" layer="-3.00" shape="543.679830,5728.164001 522.850640,5643.290577 550.700046,5511.767662 563.184968,5436.942461 565.462893,5432.983679 575.510997,5432.745761 584.135986,5424.886154 588.450892,5417.023918 589.889486,5413.929876 645.172761,5425.877676 635.191823,5505.219118 634.813888,5524.775692 645.347072,5533.601067 634.546280,5582.447591 629.915508,5625.063716 628.525688,5635.922824 628.665617,5640.537563 629.556031,5643.655222 628.514430,5654.181757 655.759952,5722.109438 702.129374,5815.562862 696.147419,5821.039026 597.087670,5768.541510 548.998443,5742.299607 543.679830,5728.164001"/>
    <poly id="1363332809" type="building.yes" color="255,230,230" fill="1" layer="-1.00" shape="938.542961,4950.278176 972.692632,4940.993586 959.543158,4893.030334 925.384386,4902.314969 938.542961,4950.278176"/>
    <poly id="153284057" type="amenity.townhall" color="237,199,199" fill="1" layer="-1.00" shape="498.890395,5392.698302 494.666940,5411.842129 500.234676,5412.832746 499.697545,5415.683301 499.375094,5417.679831 509.305716,5419.915485 522.653601,5422.929717 527.944567,5424.130950 530.808671,5424.742792 536.775234,5400.763528 498.890395,5392.698302"/>
    <poly id="153284057#1" type="building.public" color="255,230,230" fill="1" layer="-1.00" shape="498.890395,5392.698302 494.666940,5411.842129 500.234676,5412.832746 499.697545,5415.683301 499.375094,5417.679831 509.305716,5419.915485 522.653601,5422.929717 527.944567,5424.130950 530.808671,5424.742792 536.775234,5400.763528 498.890395,5392.698302"/>
    <poly id="154060073" type="building.yes" color="255,230,230" fill="1" layer="-1.00" shape="187.765103,4876.663437 188.800751,4875.876426 189.953316,4873.492103 189.776180,4871.107029 188.447676,4868.987534 187.832409,4868.099755 196.038155,4860.272804 188.528074,4853.047079 171.124966,4870.564052 180.158626,4882.139038 187.765103,4876.663437"/>
    <poly id="154060077" type="building.university" color="255,230,230" fill="1" layer="-1.00" shape="272.531170,4884.654252 263.183797,4875.685819 239.458689,4852.599006 230.218273,4843.741600 206.403462,4868.376493 214.743027,4876.368116 230.012347,4860.580508 238.128907,4868.372354 221.850563,4885.202106 231.635019,4894.581180 246.538225,4879.181644 253.013617,4885.386281 237.994319,4900.918854 247.751979,4910.275745 272.531170,4884.654252"/>
    <poly id="154060080" type="building.university" color="255,230,230" fill="1" layer="-1.00" shape="377.405224,4843.571593 367.752550,4853.150200 379.596929,4864.982182 369.292435,4875.203793 383.598400,4889.499848 393.170687,4879.998861 402.171127,4886.848487 414.450513,4887.277270 428.514329,4873.330726 422.333534,4867.159409 411.966490,4877.436396 400.951632,4866.436826 402.746438,4864.663020 394.059399,4855.983250 391.934202,4858.089650 377.405224,4843.571593"/>
    <poly id="154060081" type="building.yes" color="255,230,230" fill="1" layer="-1.00" shape="287.826926,4900.570279 279.496460,4892.434383 272.210097,4899.840251 280.540563,4907.976141 287.826926,4900.570279"/>
    <poly id="154060086" type="building.university" color="255,230,230" fill="1" layer="-1.00" shape="272.745729,4915.048929 280.112352,4907.720757 271.951444,4899.584966 264.584821,4906.913145 272.745729,4915.048929"/>
    <poly id="154060087" type="building.yes" color="255,230,230" fill="1" layer="-1.00" shape="195.587993,4883.035185 219.312875,4906.576687 228.831422,4897.064392 205.115463,4873.522870 195.587993,4883.035185"/>