<?xml version="1.0" encoding="UTF-8"?>

<!-- generated on 2025-04-02 00:29:52 by Eclipse SUMO duarouter Version 1.22.0
<duarouterConfiguration xmlns:xsi="http://www.w3.org/2001/XMLSchema-instance" xsi:noNamespaceSchemaLocation="http://sumo.dlr.de/xsd/duarouterConfiguration.xsd">

    <input>
        <net-file value="C:\Users\FADEL\Documents\GitHub\TrafficSimulation\public\2025-04-01-23-18-33\osm.net.xml"/>
        <route-files value="C:\Users\FADEL\Documents\GitHub\TrafficSimulation\public\2025-04-01-23-18-33\osm.passenger.trips.xml"/>
    </input>

    <output>
        <output-file value="C:\Users\FADEL\Documents\GitHub\TrafficSimulation\public\2025-04-01-23-18-33\osm.passenger.trips.xml.tmp"/>
        <write-trips value="true"/>
    </output>

    <time>
        <begin value="0"/>
        <end value="3600"/>
    </time>

    <report>
        <no-warnings value="true"/>
        <ignore-errors value="true"/>
        <no-step-log value="true"/>
    </report>

</duarouterConfiguration>
-->

<routes xmlns:xsi="http://www.w3.org/2001/XMLSchema-instance" xsi:noNamespaceSchemaLocation="http://sumo.dlr.de/xsd/routes_file.xsd">
    <vType id="veh_passenger" vClass="passenger"/>
    <trip id="veh0" type="veh_passenger" depart="0.00" departLane="best" departSpeed="max" from="26021076" to="-26020486#0"/>
    <trip id="veh4" type="veh_passenger" depart="47.37" departLane="best" from="26020237#0" to="-26020486#1"/>
    <trip id="veh5" type="veh_passenger" depart="59.21" departLane="best" departSpeed="max" from="133369475" to="26020304#0"/>
    <trip id="veh6" type="veh_passenger" depart="71.06" departLane="best" from="26019107#3" to="-332620253"/>
    <trip id="veh9" type="veh_passenger" depart="106.59" departLane="best" from="293305762#0" to="26023290#2"/>
    <trip id="veh10" type="veh_passenger" depart="118.43" departLane="best" departSpeed="max" from="26020314" to="556018431#0"/>
    <trip id="veh11" type="veh_passenger" depart="130.27" departLane="best" departSpeed="max" from="26019878#0" to="26020319"/>
    <trip id="veh12" type="veh_passenger" depart="142.11" departLane="best" from="297192313" to="26020493"/>
    <trip id="veh16" type="veh_passenger" depart="189.49" departLane="best" departSpeed="max" from="26021076" to="26019107#8"/>
    <trip id="veh18" type="veh_passenger" depart="213.17" departLane="best" from="-297182837#2" to="26023290#2"/>
    <trip id="veh23" type="veh_passenger" depart="272.39" departLane="best" departSpeed="max" from="555390982#0" to="26020237#6"/>
    <trip id="veh26" type="veh_passenger" depart="307.91" departLane="best" from="26020227#0" to="213669214#2"/>
    <trip id="veh29" type="veh_passenger" depart="343.44" departLane="best" from="29081094#3" to="26020232"/>
    <trip id="veh30" type="veh_passenger" depart="355.29" departLane="best" from="-26023107#0" to="26020117"/>
    <trip id="veh33" type="veh_passenger" depart="390.81" departLane="best" departSpeed="max" from="-1317046062" to="26023290#1"/>
    <trip id="veh34" type="veh_passenger" depart="402.66" departLane="best" from="26023135#0" to="26020319"/>
    <trip id="veh37" type="veh_passenger" depart="438.18" departLane="best" from="355559011#3" to="26018633#1"/>
    <trip id="veh39" type="veh_passenger" depart="461.87" departLane="best" from="26020675#0" to="-332620253"/>
    <trip id="veh43" type="veh_passenger" depart="509.24" departLane="best" from="-26023135#0" to="26023318#5"/>
    <trip id="veh45" type="veh_passenger" depart="532.93" departLane="best" from="26020266#1" to="26020319"/>
    <trip id="veh46" type="veh_passenger" depart="544.77" departLane="best" from="26020237#1" to="213669214#0"/>
    <trip id="veh49" type="veh_passenger" depart="580.30" departLane="best" departSpeed="max" from="-26023319" to="225413502-AddedOffRampEdge"/>
    <trip id="veh50" type="veh_passenger" depart="592.14" departLane="best" from="26019107#3" to="26020486#3"/>
    <trip id="veh52" type="veh_passenger" depart="615.83" departLane="best" from="-26023135#1" to="26020675#2"/>
    <trip id="veh53" type="veh_passenger" depart="627.67" departLane="best" from="327178665#0" to="-26023107#0"/>
    <trip id="veh55" type="veh_passenger" depart="651.36" departLane="best" departSpeed="max" from="555390982#0" to="26020468#1"/>
    <trip id="veh58" type="veh_passenger" depart="686.88" departLane="best" from="26020237#1" to="26020237#8"/>
    <trip id="veh63" type="veh_passenger" depart="746.10" departLane="best" from="26020237#0" to="26018633#5"/>
    <trip id="veh64" type="veh_passenger" depart="757.94" departLane="best" departSpeed="max" from="26020314" to="-26020486#7"/>
    <trip id="veh68" type="veh_passenger" depart="805.31" departLane="best" from="26020237#7" to="26020237#0"/>
    <trip id="veh69" type="veh_passenger" depart="817.16" departLane="best" from="556017182#1" to="767692757#1"/>
    <trip id="veh70" type="veh_passenger" depart="829.00" departLane="best" departSpeed="max" from="26020314" to="26023318#0"/>
    <trip id="veh71" type="veh_passenger" depart="840.84" departLane="best" from="-26020856#2" to="26020486#1"/>
    <trip id="veh73" type="veh_passenger" depart="864.53" departLane="best" departSpeed="max" from="-26023264" to="1060895818"/>
    <trip id="veh76" type="veh_passenger" depart="900.06" departLane="best" departSpeed="max" from="50999963#0" to="26015250"/>
    <trip id="veh77" type="veh_passenger" depart="911.90" departLane="best" from="26020492#0" to="26020494"/>
    <trip id="veh78" type="veh_passenger" depart="923.74" departLane="best" from="26020237#0" to="26020486#1"/>
    <trip id="veh80" type="veh_passenger" depart="947.43" departLane="best" from="26018887#0" to="26023318#2"/>
    <trip id="veh81" type="veh_passenger" depart="959.27" departLane="best" from="819334565#2" to="767692757#1"/>
    <trip id="veh82" type="veh_passenger" depart="971.11" departLane="best" from="-26023149" to="213669214#0"/>
    <trip id="veh84" type="veh_passenger" depart="994.80" departLane="best" departSpeed="max" from="50999963#0" to="297182837#5"/>
    <trip id="veh85" type="veh_passenger" depart="1006.64" departLane="best" from="26019107#9" to="-767692757#0"/>
    <trip id="veh87" type="veh_passenger" depart="1030.33" departLane="best" from="26020675#1" to="767692757#0"/>
    <trip id="veh89" type="veh_passenger" depart="1054.01" departLane="best" departSpeed="max" from="-26023300#2" to="26020319"/>
    <trip id="veh92" type="veh_passenger" depart="1089.54" departLane="best" from="26020237#1" to="26018633#5"/>
    <trip id="veh94" type="veh_passenger" depart="1113.23" departLane="best" from="26020237#1" to="-1317046063"/>
    <trip id="veh95" type="veh_passenger" depart="1125.07" departLane="best" departSpeed="max" from="-26023264" to="297182837#5"/>
    <trip id="veh96" type="veh_passenger" depart="1136.91" departLane="best" from="50999963#2" to="26020319"/>
    <trip id="veh100" type="veh_passenger" depart="1184.28" departLane="best" from="50999963#1" to="153284063"/>
    <trip id="veh103" type="veh_passenger" depart="1219.81" departLane="best" from="26020227#1" to="26020494"/>
    <trip id="veh105" type="veh_passenger" depart="1243.50" departLane="best" departSpeed="max" from="332620253" to="556018435"/>
    <trip id="veh108" type="veh_passenger" depart="1279.03" departLane="best" from="26019107#2" to="355559011#4"/>
    <trip id="veh110" type="veh_passenger" depart="1302.71" departLane="best" from="355559011#1" to="297182837#0"/>
    <trip id="veh111" type="veh_passenger" depart="1314.55" departLane="best" departSpeed="max" from="133369475" to="29081094#1"/>
    <trip id="veh112" type="veh_passenger" depart="1326.40" departLane="best" from="26020237#8" to="26019107#10"/>
    <trip id="veh123" type="veh_passenger" depart="1456.67" departLane="best" departSpeed="max" from="26019878#0" to="26020475"/>
    <trip id="veh125" type="veh_passenger" depart="1480.35" departLane="best" departSpeed="max" from="26020314" to="26023290#1"/>
    <trip id="veh127" type="veh_passenger" depart="1504.04" departLane="best" from="26019107#8" to="-26022704#1"/>
    <trip id="veh130" type="veh_passenger" depart="1539.57" departLane="best" from="-28959908#0" to="26020232"/>
    <trip id="veh131" type="veh_passenger" depart="1551.41" departLane="best" from="555390982#1" to="26023135#1"/>
    <trip id="veh132" type="veh_passenger" depart="1563.25" departLane="best" from="50999963#2" to="26020492#1-AddedOnRampEdge"/>
    <trip id="veh133" type="veh_passenger" depart="1575.10" departLane="best" from="26018633#4" to="26020319"/>
    <trip id="veh136" type="veh_passenger" depart="1610.63" departLane="best" departSpeed="max" from="26021076" to="26019107#3"/>
    <trip id="veh137" type="veh_passenger" depart="1622.47" departLane="best" from="297182837#2" to="26023318#2"/>
    <trip id="veh138" type="veh_passenger" depart="1634.31" departLane="best" from="26023107#1" to="225413502-AddedOffRampEdge"/>
    <trip id="veh140" type="veh_passenger" depart="1658.00" departLane="best" from="26020312#3" to="-26020486#7"/>
    <trip id="veh143" type="veh_passenger" depart="1693.53" departLane="best" from="26023104#0" to="767692757#1"/>
    <trip id="veh145" type="veh_passenger" depart="1717.21" departLane="best" departSpeed="max" from="50999963#0" to="26020492#1-AddedOnRampEdge"/>
    <trip id="veh148" type="veh_passenger" depart="1752.74" departLane="best" departSpeed="max" from="50999963#0" to="26023308"/>
    <trip id="veh150" type="veh_passenger" depart="1776.43" departLane="best" departSpeed="max" from="26021076" to="26018633#4"/>
    <trip id="veh151" type="veh_passenger" depart="1788.27" departLane="best" departSpeed="max" from="-26023264" to="26018887#0"/>
    <trip id="veh153" type="veh_passenger" depart="1811.95" departLane="best" departSpeed="max" from="26020314" to="-293305762#1"/>
    <trip id="veh155" type="veh_passenger" depart="1835.64" departLane="best" departSpeed="max" from="26023288" to="-26020856#1"/>
    <trip id="veh156" type="veh_passenger" depart="1847.48" departLane="best" from="26020227#2" to="26020319"/>
    <trip id="veh160" type="veh_passenger" depart="1894.85" departLane="best" departSpeed="max" from="26019878#0" to="-1317046063"/>
    <trip id="veh161" type="veh_passenger" depart="1906.70" departLane="best" from="26019107#5" to="26023318#3"/>
    <trip id="veh163" type="veh_passenger" depart="1930.38" departLane="best" from="26020237#0" to="26023318#0"/>
    <trip id="veh164" type="veh_passenger" depart="1942.23" departLane="best" departSpeed="max" from="26020314" to="26020486#7"/>
    <trip id="veh165" type="veh_passenger" depart="1954.07" departLane="best" departSpeed="max" from="133369475" to="213669214#2"/>
    <trip id="veh166" type="veh_passenger" depart="1965.91" departLane="best" from="26019107#2" to="26023149"/>
    <trip id="veh167" type="veh_passenger" depart="1977.75" departLane="best" from="26020227#1" to="-767692772"/>
    <trip id="veh168" type="veh_passenger" depart="1989.60" departLane="best" from="26020842#1" to="-26020486#0"/>
    <trip id="veh169" type="veh_passenger" depart="2001.44" departLane="best" from="26019878#1" to="26020464"/>
    <trip id="veh174" type="veh_passenger" depart="2060.65" departLane="best" departSpeed="max" from="-26020232" to="26020319"/>
    <trip id="veh180" type="veh_passenger" depart="2131.71" departLane="best" from="26023228" to="26023366#0"/>
    <trip id="veh182" type="veh_passenger" depart="2155.40" departLane="best" from="26018878#0" to="26023135#1"/>
    <trip id="veh183" type="veh_passenger" depart="2167.24" departLane="best" from="26023203#2" to="26020675#2"/>
    <trip id="veh188" type="veh_passenger" depart="2226.45" departLane="best" from="26020312#0" to="26019107#4"/>
    <trip id="veh191" type="veh_passenger" depart="2261.98" departLane="best" departSpeed="max" from="26021076" to="292873084#1"/>
    <trip id="veh193" type="veh_passenger" depart="2285.67" departLane="best" departSpeed="max" from="26020314" to="26020266#2"/>
    <trip id="veh195" type="veh_passenger" depart="2309.35" departLane="best" departSpeed="max" from="26015318#0" to="297182834"/>
    <trip id="veh197" type="veh_passenger" depart="2333.04" departLane="best" departSpeed="max" from="50999963#0" to="26015250"/>
    <trip id="veh198" type="veh_passenger" depart="2344.88" departLane="best" from="26020237#8" to="26020492#1"/>
    <trip id="veh199" type="veh_passenger" depart="2356.72" departLane="best" departSpeed="max" from="26019878#0" to="-26020486#1"/>
    <trip id="veh201" type="veh_passenger" depart="2380.41" departLane="best" from="26019107#3" to="297182837#5"/>
    <trip id="veh202" type="veh_passenger" depart="2392.25" departLane="best" from="26023267#0" to="26018633#5"/>
    <trip id="veh203" type="veh_passenger" depart="2404.10" departLane="best" from="26020266#5" to="26023318#5"/>
    <trip id="veh204" type="veh_passenger" depart="2415.94" departLane="best" from="26023203#2" to="26022704#1"/>
    <trip id="veh207" type="veh_passenger" depart="2451.47" departLane="best" from="26023285#0" to="26018633#3"/>
    <trip id="veh209" type="veh_passenger" depart="2475.15" departLane="best" departSpeed="max" from="26020314" to="26023318#5"/>
    <trip id="veh210" type="veh_passenger" depart="2487.00" departLane="best" from="26020266#4" to="26023290#2"/>
    <trip id="veh214" type="veh_passenger" depart="2534.37" departLane="best" departSpeed="max" from="26020314" to="26018633#4"/>
    <trip id="veh215" type="veh_passenger" depart="2546.21" departLane="best" departSpeed="max" from="332620253" to="26020266#4"/>
    <trip id="veh216" type="veh_passenger" depart="2558.05" departLane="best" from="555390982#1" to="26020266#1"/>
    <trip id="veh217" type="veh_passenger" depart="2569.90" departLane="best" from="-26023149" to="26020675#2"/>
    <trip id="veh218" type="veh_passenger" depart="2581.74" departLane="best" from="-26020842#1" to="-332620253"/>
    <trip id="veh220" type="veh_passenger" depart="2605.42" departLane="best" from="28959908#2" to="26020492#0"/>
    <trip id="veh222" type="veh_passenger" depart="2629.11" departLane="best" departSpeed="max" from="26020842#0" to="26020492#1"/>
    <trip id="veh224" type="veh_passenger" depart="2652.80" departLane="best" from="26023099#1" to="-767692757#0"/>
    <trip id="veh225" type="veh_passenger" depart="2664.64" departLane="best" from="-297182837#4" to="-26023111#0"/>
    <trip id="veh229" type="veh_passenger" depart="2712.01" departLane="best" from="26023285#0" to="26020237#5"/>
    <trip id="veh230" type="veh_passenger" depart="2723.85" departLane="best" from="26023203#0" to="327178665#1"/>
    <trip id="veh232" type="veh_passenger" depart="2747.54" departLane="best" from="26020237#1" to="26020319"/>
    <trip id="veh235" type="veh_passenger" depart="2783.07" departLane="best" from="26018633#0" to="-28960017#1"/>
    <trip id="veh236" type="veh_passenger" depart="2794.91" departLane="best" from="555390982#2" to="26020266#7"/>
    <trip id="veh240" type="veh_passenger" depart="2842.28" departLane="best" from="-26020486#4" to="26023318#5"/>
    <trip id="veh243" type="veh_passenger" depart="2877.81" departLane="best" from="297182837#0" to="26020319"/>
    <trip id="veh244" type="veh_passenger" depart="2889.65" departLane="best" from="26020237#6" to="26019107#10"/>
    <trip id="veh245" type="veh_passenger" depart="2901.49" departLane="best" from="26019107#0" to="556018431#0"/>
    <trip id="veh246" type="veh_passenger" depart="2913.34" departLane="best" from="26020227#1" to="26020312#1"/>
    <trip id="veh248" type="veh_passenger" depart="2937.02" departLane="best" departSpeed="max" from="26020314" to="26020227#3"/>
    <trip id="veh251" type="veh_passenger" depart="2972.55" departLane="best" departSpeed="max" from="26020314" to="355559011#2"/>
    <trip id="veh252" type="veh_passenger" depart="2984.39" departLane="best" departSpeed="max" from="-292873084#1" to="26020319"/>
    <trip id="veh260" type="veh_passenger" depart="3079.14" departLane="best" departSpeed="max" from="555390982#0" to="26020304#1"/>
    <trip id="veh264" type="veh_passenger" depart="3126.51" departLane="best" from="26020312#0" to="29081094#3"/>
    <trip id="veh265" type="veh_passenger" depart="3138.35" departLane="best" from="26020266#5" to="-332620253"/>
    <trip id="veh266" type="veh_passenger" depart="3150.19" departLane="best" departSpeed="max" from="26020314" to="26019107#5"/>
    <trip id="veh267" type="veh_passenger" depart="3162.04" departLane="best" from="26020464" to="26020319"/>
    <trip id="veh268" type="veh_passenger" depart="3173.88" departLane="best" from="26020237#7" to="26019107#10"/>
    <trip id="veh270" type="veh_passenger" depart="3197.57" departLane="best" from="28959956#3" to="-26020486#5"/>
    <trip id="veh273" type="veh_passenger" depart="3233.09" departLane="best" from="26023099#2" to="29081094#3"/>
    <trip id="veh278" type="veh_passenger" depart="3292.31" departLane="best" from="26022872#0" to="-332620253"/>
    <trip id="veh281" type="veh_passenger" depart="3327.84" departLane="best" departSpeed="max" from="26019878#0" to="26019107#10"/>
    <trip id="veh282" type="veh_passenger" depart="3339.68" departLane="best" departSpeed="max" from="26023300#0" to="26023318#5"/>
    <trip id="veh283" type="veh_passenger" depart="3351.52" departLane="best" from="-26023111#1" to="26020675#2"/>
    <trip id="veh289" type="veh_passenger" depart="3422.58" departLane="best" from="-297182837#2" to="-26023135#1"/>
    <trip id="veh290" type="veh_passenger" depart="3434.42" departLane="best" from="355559011#1" to="26020494"/>
    <trip id="veh294" type="veh_passenger" depart="3481.79" departLane="best" from="26019107#4" to="26020486#2"/>
    <trip id="veh295" type="veh_passenger" depart="3493.64" departLane="best" departSpeed="max" from="26021076" to="26020237#0"/>
    <trip id="veh302" type="veh_passenger" depart="3576.54" departLane="best" from="26023149" to="26023317#0"/>
</routes>
