<?xml version="1.0" encoding="UTF-8"?>

<!-- generated on 2025-03-18 01:12:31 by Eclipse SUMO polyconvert Version 1.22.0
<polyconvertConfiguration xmlns:xsi="http://www.w3.org/2001/XMLSchema-instance" xsi:noNamespaceSchemaLocation="http://sumo.dlr.de/xsd/polyconvertConfiguration.xsd">

    <input>
        <net-file value="osm.net.xml"/>
        <osm-files value="osm_bbox.osm.xml"/>
        <osm.keep-full-type value="true"/>
        <type-file value="C:\Program%20Files%20(x86)\Eclipse\Sumo\data\typemap\osmPolyconvert.typ.xml"/>
    </input>

    <output>
        <output-file value="osm.poly.xml"/>
    </output>

    <report>
        <verbose value="true"/>
    </report>

</polyconvertConfiguration>
-->

<additional xmlns:xsi="http://www.w3.org/2001/XMLSchema-instance" xsi:noNamespaceSchemaLocation="http://sumo.dlr.de/xsd/additional_file.xsd">
    <location netOffset="-392036.30,-5819107.27" convBoundary="-2743.66,-2387.37,3490.21,2772.93" origBoundary="13.368964,52.490313,13.460377,52.536648" projParameter="+proj=utm +zone=33 +ellps=WGS84 +datum=WGS84 +units=m +no_defs"/>

    <poly id="1000873622" type="building.apartments" color="255,230,230" fill="1" layer="-1.00" shape="621.034939,1051.109620 622.501962,1053.937237 620.186939,1055.156368 618.093608,1056.270493 616.626339,1053.431755 603.991496,1060.107041 605.472340,1062.945478 603.049994,1064.222608 600.943102,1065.337038 599.462012,1062.487480 584.136428,1070.579366 585.631337,1073.439745 583.236139,1074.716289 580.840698,1075.981712 579.338758,1073.110362 572.715986,1076.604969 567.073471,1065.990644 573.770151,1062.461027 572.055648,1059.182622 574.477989,1057.905477 576.846543,1056.651768 578.567829,1059.930026 593.913792,1051.837676 592.191783,1048.526046 594.520128,1047.295483 596.721033,1046.134479 598.443040,1049.446111 611.111582,1042.758945 609.389095,1039.425064 611.757911,1038.182494 613.797704,1037.102923 615.520189,1040.436805 631.020365,1032.252175 629.277290,1028.907612 631.578759,1027.688783 633.678890,1026.574516 635.422206,1029.930203 641.514963,1026.714360 647.157354,1037.328768 640.983925,1040.579754 642.443424,1043.374160 640.048197,1044.650676 638.041836,1045.707249 636.582091,1042.901722 621.034939,1051.109620"/>
    <poly id="1000873632" type="building.apartments" color="255,230,230" fill="1" layer="-1.00" shape="839.333663,936.946418 840.793804,939.774247 838.485459,940.993125 836.392032,942.107155 834.924861,939.268353 822.282653,945.943216 823.763399,948.781718 821.347969,950.069711 819.240981,951.184046 817.753205,948.334572 802.426673,956.414643 803.928511,959.286060 801.532959,960.551374 799.130624,961.816837 797.635567,958.945273 791.012491,962.439580 785.363799,951.836281 792.060543,948.295845 790.353180,945.028339 792.768605,943.740330 795.144053,942.486579 796.858441,945.765061 812.205109,937.673405 810.490242,934.372674 812.818694,933.142216 815.012672,931.970338 816.734565,935.282045 829.403689,928.595452 827.688345,925.272470 830.057026,924.018886 832.090129,922.939555 833.812498,926.273511 849.320170,918.089435 847.570427,914.744944 849.878787,913.526071 851.972473,912.423169 853.722214,915.767661 859.808467,912.552243 865.450494,923.166896 859.283566,926.417455 860.743212,929.223046 858.340846,930.488480 856.341177,931.544813 854.881773,928.750346 839.333663,936.946418"/>
    <poly id="1000873642" type="building.apartments" color="255,230,230" fill="1" layer="-1.00" shape="751.769744,1133.783027 753.236669,1136.610683 750.921655,1137.829752 748.828333,1138.943821 747.361163,1136.105045 734.726373,1142.779995 736.207117,1145.618471 733.784782,1146.895536 731.678142,1148.021032 730.197152,1145.171436 714.871389,1153.251792 716.366441,1156.123332 713.971009,1157.388690 711.575578,1158.654050 710.073739,1155.782661 703.450995,1159.277091 697.809097,1148.673742 704.505505,1145.133181 702.791360,1141.865853 705.213447,1140.577650 707.581992,1139.324004 709.303163,1142.602307 724.649061,1134.510366 722.927411,1131.209813 725.255746,1129.979311 727.456398,1128.807244 729.178289,1132.118920 741.846778,1125.432091 740.124651,1122.109288 742.493213,1120.855659 744.532998,1119.776142 746.255367,1123.110068 761.755477,1114.925851 760.012519,1111.581243 762.313979,1110.362475 764.414344,1109.259385 766.157299,1112.603995 772.250275,1109.399437 777.892049,1120.002870 771.718646,1123.253692 773.178291,1126.059258 770.782830,1127.324588 768.776477,1128.381107 767.317074,1125.586665 751.769744,1133.783027"/>
    <poly id="1000873645" type="building.apartments" color="255,230,230" fill="1" layer="-1.00" shape="859.078045,1079.035585 861.013121,1082.787742 858.912237,1083.868546 856.817895,1084.938079 854.883060,1081.197045 841.874848,1087.879876 843.816962,1091.643001 841.749764,1092.711948 839.474198,1093.874473 837.532082,1090.111350 821.758696,1098.223407 823.728933,1102.030418 821.319392,1103.273776 819.426407,1104.238774 817.462951,1100.431615 810.838112,1103.836920 805.422954,1093.350896 812.074455,1089.922745 810.607309,1087.083950 813.312204,1085.689468 815.151407,1084.747900 816.618551,1087.586696 831.949062,1079.706862 830.354210,1076.614923 833.347681,1075.069481 835.012202,1074.209635 836.614079,1077.312550 849.286500,1070.792835 847.592540,1067.513890 850.592806,1065.968311 852.573036,1064.956908 854.266994,1068.235855 869.919626,1060.182187 868.098207,1056.661218 870.414016,1055.475571 872.528241,1054.383354 874.349657,1057.904325 880.538480,1054.731193 885.960297,1065.217150 879.489702,1068.541094 881.368059,1072.183225 879.314171,1073.240736 877.213279,1074.321532 875.334919,1070.679403 859.078045,1079.035585"/>
    <poly id="1000875898" type="landuse.commercial" color="209,209,204" fill="1" layer="-3.00" shape="557.808403,1087.658823 556.678800,1085.981086 554.995424,1083.503186 551.597323,1079.594061 557.690225,1074.842508 552.975873,1068.792383 549.472046,1064.395967 550.438307,1059.244986 557.398040,1053.472945 569.378253,1044.185797 566.492185,1040.721662 571.256557,1037.290055 571.838377,1035.964249 572.179372,1034.799510 572.082017,1033.455214 571.620985,1032.241297 570.314491,1030.545180 532.327881,982.773296 531.334077,982.027297 529.889615,981.469225 528.538719,981.153905 527.087613,981.530691 525.786790,982.260262 494.619138,1006.779258 492.506436,1007.938372 490.567396,1008.659702 488.733980,1009.245185 487.171893,1009.513143 484.966940,1009.561533 476.445838,1009.448100 458.475621,1035.591640 456.969107,1037.772323 456.706867,1038.812940 456.855303,1039.699884 457.169444,1040.405150 459.124749,1042.899305 460.705637,1045.034471 459.697059,1045.779900 458.461717,1046.708348 523.663385,1140.106283 525.648794,1138.716295 528.361862,1142.339987 529.814032,1144.489124 530.461806,1145.242713 531.430833,1145.788959 532.447547,1146.033716 533.543720,1146.187709 534.701880,1146.073283 535.523707,1145.788194 538.202578,1144.449764 540.382096,1143.244692 550.718028,1136.986861 549.235511,1134.382155 557.808403,1087.658823"/>
    <poly id="1003153427" type="leisure.playground" color="207,245,201" fill="1" layer="-2.00" shape="1169.626348,241.332398 1168.737727,244.790156 1164.255632,262.157689 1158.761542,260.819777 1153.276191,276.384293 1163.704270,295.407435 1175.403525,288.976639 1181.060257,272.863167 1176.942854,242.808636 1169.626348,241.332398"/>
    <poly id="1014123838" type="landuse.commercial" color="209,209,204" fill="1" layer="-3.00" shape="856.916734,285.158541 673.013842,395.038901 655.111729,362.471383 648.812074,351.014533 669.134381,336.626602 690.730480,323.980136 702.681538,316.986299 703.893871,316.236466 704.114868,316.098097 704.979229,315.578434 705.803365,315.081906 706.111841,314.908239 720.174027,306.354882 727.831664,301.702861 792.219980,262.182091 829.649926,239.375436 856.916734,285.158541"/>
    <poly id="1014123839" type="landuse.retail" color="194,194,130" fill="1" layer="-3.00" shape="875.405501,211.390830 903.292231,258.217740 856.916734,285.158541 829.649926,239.375436 875.405501,211.390830"/>
    <poly id="1015024879" type="leisure.playground" color="207,245,201" fill="1" layer="-2.00" shape="1912.974376,1111.804218 1923.333961,1100.919826 1929.459652,1106.718104 1919.100067,1117.602483 1912.974376,1111.804218"/>
    <poly id="1015024880" type="building.yes" color="255,230,230" fill="1" layer="-1.00" shape="2006.880013,1090.510041 2026.285103,1069.782717 2027.840214,1071.073239 2038.357543,1080.960560 2067.806254,1108.476031 2048.407700,1129.191923 2006.880013,1090.510041"/>
    <poly id="1016406891" type="building.apartments" color="255,230,230" fill="1" layer="-1.00" shape="844.483472,490.832702 868.885845,537.312750 857.838413,543.084667 833.435959,496.604673 844.483472,490.832702"/>
    <poly id="1016406892" type="building.apartments" color="255,230,230" fill="1" layer="-1.00" shape="804.406151,511.694285 828.892186,558.261335 840.153999,552.362259 815.661505,505.806425 804.406151,511.694285"/>
    <poly id="1016406893" type="building.apartments" color="255,230,230" fill="1" layer="-1.00" shape="775.780736,526.953266 799.844115,573.429281 811.094723,567.641656 787.024398,521.154614 775.780736,526.953266"/>
    <poly id="1026172045" type="natural.tree_row" color="140,196,107" fill="0" layer="-4.00" shape="1121.369525,281.063729 1138.401055,306.841826"/>
    <poly id="1028499489" type="building.office" color="255,230,230" fill="1" layer="-1.00" shape="495.728636,649.305479 508.656752,628.725245 509.116330,628.014129 521.109923,609.079052 530.744717,612.584307 530.546335,613.133906 534.349054,614.430312 534.132025,615.058213 550.590722,621.117828 550.960882,620.353040 565.993183,626.065650 569.745260,627.530106 569.463260,627.981390 572.950433,629.128958 598.595670,638.692784 599.396418,637.751648 609.536881,641.724453 606.460465,666.439320 603.310496,684.390276 598.401167,706.619383 571.148939,691.549301 523.251318,664.614030 495.728636,649.305479"/>
    <poly id="1028499490" type="building.office" color="255,230,230" fill="1" layer="-1.00" shape="542.819832,637.289615 590.566784,654.558577 579.916839,674.409860 535.797235,649.817434 542.819832,637.289615"/>
    <poly id="1034552986" type="traffic_sign.none" color="black" fill="0" layer="0.00" shape="447.772731,1037.506852 453.138324,1040.749575 458.395360,1043.994687 459.697059,1045.779900 521.627869,1133.952908 525.998008,1140.711589"/>
    <poly id="1034552987" type="traffic_sign.none" color="black" fill="0" layer="0.00" shape="521.627869,1133.952908 525.927984,1135.972799 529.537419,1137.139898 537.664702,1138.185639 541.900192,1139.116463 543.584892,1139.179657 545.671874,1138.087892 552.047763,1135.410970 562.617456,1130.216280 574.714337,1134.925003"/>
    <poly id="1040382059" type="leisure.outdoor_seating" color="207,245,201" fill="1" layer="-2.00" shape="1260.095761,856.890355 1260.115144,852.483457 1276.032715,853.104785 1276.053538,858.423258 1273.378926,858.414756 1273.295817,857.092398 1260.095761,856.890355"/>
    <poly id="1042239842" type="man_made.planter" color="255,230,230" fill="1" layer="-1.00" shape="1271.760529,219.400157 1272.971270,218.884180 1272.549122,217.891903 1271.338380,218.407880 1271.760529,219.400157"/>
    <poly id="1042239843" type="man_made.planter" color="255,230,230" fill="1" layer="-1.00" shape="1270.454056,220.819543 1271.597425,220.327288 1271.168249,219.324037 1270.018336,219.827562 1270.454056,220.819543"/>
    <poly id="1042239844" type="man_made.planter" color="255,230,230" fill="1" layer="-1.00" shape="1280.057352,238.458824 1281.214289,237.966275 1280.670492,236.687334 1279.513554,237.179883 1280.057352,238.458824"/>
    <poly id="1042239845" type="man_made.planter" color="255,230,230" fill="1" layer="-1.00" shape="1277.546714,237.890364 1278.873289,237.394121 1278.433939,236.235307 1277.107605,236.742673 1277.546714,237.890364"/>
    <poly id="1042239846" type="man_made.planter" color="255,230,230" fill="1" layer="-1.00" shape="1275.265030,243.158831 1276.315819,242.779868 1275.904580,241.664951 1274.853790,242.043915 1275.265030,243.158831"/>
    <poly id="1042239847" type="man_made.planter" color="255,230,230" fill="1" layer="-1.00" shape="1282.031752,255.240531 1283.398067,254.698913 1282.902255,253.441182 1281.535940,253.982800 1282.031752,255.240531"/>
    <poly id="1042239848" type="man_made.planter" color="255,230,230" fill="1" layer="-1.00" shape="1279.988400,250.255423 1281.267232,249.749093 1280.721013,248.358929 1279.442182,248.865260 1279.988400,250.255423"/>
    <poly id="1042239849" type="leisure.pitch" color="207,245,201" fill="1" layer="-2.00" shape="1271.385727,234.919987 1273.433740,235.442882 1275.096437,235.417797 1276.568658,235.063038 1278.099045,234.261914 1279.286284,232.978656 1274.883551,222.214149 1273.492029,222.222201 1271.979091,222.577848 1270.258706,223.383111 1268.765390,224.639656 1267.797712,226.029409 1271.385727,234.919987"/>
    <poly id="1042239849#1" type="sport.hopscotch" color="79,230,125" fill="1" layer="-2.00" shape="1271.385727,234.919987 1273.433740,235.442882 1275.096437,235.417797 1276.568658,235.063038 1278.099045,234.261914 1279.286284,232.978656 1274.883551,222.214149 1273.492029,222.222201 1271.979091,222.577848 1270.258706,223.383111 1268.765390,224.639656 1267.797712,226.029409 1271.385727,234.919987"/>
    <poly id="1042965022" type="leisure.park" color="207,245,201" fill="1" layer="-2.00" shape="315.439449,685.122672 334.065230,690.944766 328.467290,709.583997 326.653675,714.163887 318.195082,734.524002 303.764199,728.687657 299.402086,726.647055 304.686851,715.692669 312.302250,698.355497 315.439449,685.122672"/>
    <poly id="1042965023" type="building.yes" color="255,230,230" fill="1" layer="-1.00" shape="336.499544,628.421305 341.042549,629.423107 339.689824,635.517335 335.146825,634.515534 336.499544,628.421305"/>
    <poly id="1042965024" type="leisure.park" color="207,245,201" fill="1" layer="-2.00" shape="366.483491,526.757967 360.971573,541.912339 353.468637,563.152709 348.519088,580.108531 343.408114,599.293413 336.499544,628.421305 341.042549,629.423107 339.689824,635.517335 338.983239,638.270234 339.638264,638.422754 337.167439,649.548941 335.900801,654.617545 333.896038,663.474604 332.317162,670.397242 330.088245,681.718414 335.484940,682.957382 359.046922,605.715363 372.333801,563.784275 380.966940,539.292130 370.318649,535.397705 372.658357,528.803326 366.483491,526.757967"/>
    <poly id="1043708781" type="landuse.grass" color="194,194,130" fill="1" layer="-3.00" shape="1685.388347,908.432338 1693.139812,904.669976 1701.348387,916.031015 1692.441355,922.845100 1686.414135,915.665164 1685.388347,908.432338"/>
    <poly id="1043708784" type="landuse.grass" color="194,194,130" fill="1" layer="-3.00" shape="1434.642194,1091.685540 1433.691994,1081.391059 1431.458717,1066.718017 1447.885823,1060.841489 1466.779501,1118.760698 1492.619353,1198.361007 1495.456835,1203.996572 1502.333614,1213.728247 1507.109682,1218.620645 1516.494285,1225.070861 1513.276377,1236.279387 1492.021457,1236.107198 1484.519226,1211.344821 1477.999047,1189.921590 1470.791673,1168.424291 1465.367451,1149.024695 1460.404418,1132.419192 1455.846098,1119.443568 1452.141806,1114.527905 1434.642194,1091.685540"/>
    <poly id="1043710630" type="leisure.park" color="207,245,201" fill="1" layer="-2.00" shape="1852.805551,772.931214 1892.186439,758.068775 1877.316668,698.647747 1839.532189,705.441705 1852.805551,772.931214"/>
    <poly id="1043710631" type="leisure.pitch" color="207,245,201" fill="1" layer="-2.00" shape="1731.659448,799.158606 1735.146768,819.423902 1722.080926,821.654608 1718.593794,801.400443 1731.659448,799.158606"/>
    <poly id="1043710631#1" type="sport.soccer" color="79,230,125" fill="1" layer="-2.00" shape="1731.659448,799.158606 1735.146768,819.423902 1722.080926,821.654608 1718.593794,801.400443 1731.659448,799.158606"/>
    <poly id="1043710632" type="leisure.playground" color="207,245,201" fill="1" layer="-2.00" shape="1772.176226,779.730557 1786.861622,777.053165 1792.508674,768.574056 1793.753801,767.456578 1796.570484,767.128464 1799.879116,768.514438 1803.026013,770.894260 1804.537776,773.309525 1807.245509,780.795227 1809.345367,785.289701 1810.803133,798.054639 1809.289988,803.717909 1808.670062,804.554774 1802.990001,807.125921 1780.387209,814.058674 1780.780780,811.234904 1779.987728,804.086037 1780.284384,801.175348 1779.050550,798.742937 1776.350279,795.986243 1775.025555,793.744970 1774.610983,791.216906 1774.738654,784.582194 1772.176226,779.730557"/>
    <poly id="1045130819" type="natural.scrub" color="140,196,107" fill="1" layer="-4.00" shape="1950.086016,1008.851046 1939.734113,1020.102409 1941.734188,1020.938175 1944.143099,1021.219849 1945.928650,1020.925265 1950.721192,1020.320786 1954.129273,1019.412458 1958.849091,1017.329616 1961.901584,1015.672325 1963.365950,1014.650291 1963.536175,1013.734158 1963.464173,1012.289153 1963.362342,1011.033960 1963.651994,1010.304409 1963.107116,1009.904488 1962.543723,1010.217122 1961.738124,1011.569848 1961.386799,1013.213182 1960.306497,1014.104503 1959.061203,1014.899249 1957.612747,1014.774817 1955.888099,1014.433815 1953.897173,1014.020687 1953.047038,1013.315807 1951.795263,1011.929722 1951.148550,1010.274609 1950.086016,1008.851046"/>
    <poly id="1045130820" type="natural.scrub" color="140,196,107" fill="1" layer="-4.00" shape="1974.065603,998.450884 1974.667791,994.598894 1974.803867,990.222877 1974.283355,987.185231 1973.559611,985.420509 1972.713280,985.205149 1971.535429,985.353042 1963.241834,994.490107 1964.965216,996.967601 1967.159353,997.988344 1968.962727,998.516812 1972.008949,998.450884 1973.111687,998.282362 1974.065603,998.450884"/>
    <poly id="1045130821" type="landuse.grass" color="194,194,130" fill="1" layer="-3.00" shape="1963.651994,1010.304409 1969.507572,1004.246764 1971.096159,1005.514290 1972.349865,1003.539860 1972.929174,1002.080759 1974.065603,998.450884 1973.111687,998.282362 1972.008949,998.450884 1968.962727,998.516812 1967.159353,997.988344 1964.965216,996.967601 1963.241834,994.490107 1959.323695,998.803329 1950.086016,1008.851046 1951.148550,1010.274609 1951.795263,1011.929722 1953.047038,1013.315807 1953.897173,1014.020687 1955.888099,1014.433815 1957.612747,1014.774817 1959.061203,1014.899249 1960.306497,1014.104503 1961.386799,1013.213182 1961.738124,1011.569848 1962.543723,1010.217122 1963.107116,1009.904488 1963.651994,1010.304409"/>
    <poly id="1045130822" type="landuse.grass" color="194,194,130" fill="1" layer="-3.00" shape="1967.229960,1038.256919 1987.540087,1057.468387 1976.632285,1069.377093 1956.474546,1050.307028 1956.824138,1048.897407 1967.229960,1038.256919"/>
    <poly id="1045130823" type="landuse.grass" color="194,194,130" fill="1" layer="-3.00" shape="1932.356943,1027.984548 1936.423568,1023.634705 1938.815851,1025.029478 1941.691114,1025.846297 1943.826961,1026.055990 1947.175335,1025.838849 1950.901995,1025.224062 1952.721227,1024.917624 1964.039082,1035.087905 1963.920835,1036.837468 1955.096632,1046.542406 1953.810684,1047.026466 1952.786241,1047.048641 1932.356943,1027.984548"/>
    <poly id="1046857556" type="landuse.flowerbed" color="194,194,130" fill="1" layer="-3.00" shape="1069.701378,942.695536 1084.921523,935.008101 1083.609339,932.421779 1068.389188,940.109218 1069.701378,942.695536"/>
    <poly id="1046857557" type="landuse.flowerbed" color="194,194,130" fill="1" layer="-3.00" shape="1045.019113,952.559144 1042.925419,948.687978 1046.930873,946.541950 1048.267783,949.016448 1050.723491,947.705434 1053.008131,951.928514 1049.157023,953.993275 1047.628920,951.155744 1045.019113,952.559144"/>
    <poly id="1046862926" type="natural.scrub" color="140,196,107" fill="1" layer="-4.00" shape="1381.323375,392.828759 1380.993146,390.443543 1351.593210,397.359212 1358.539178,416.758967 1385.167676,410.704811 1384.450252,406.747923 1365.109892,411.119012 1364.867591,409.967030 1362.730491,399.731777 1362.260425,397.472007 1381.323375,392.828759"/>
    <poly id="1046862927" type="landuse.grass" color="194,194,130" fill="1" layer="-3.00" shape="1472.310580,374.125319 1475.719423,390.096978 1489.772448,386.698069 1486.070897,370.999823 1482.233991,371.873275 1473.351653,373.924647 1472.310580,374.125319"/>
    <poly id="1046862928" type="natural.scrub" color="140,196,107" fill="1" layer="-4.00" shape="1443.038174,397.528527 1472.753970,390.773455 1468.959005,376.401416 1465.389812,373.663771 1461.682644,372.698391 1459.766520,372.617650 1434.974394,378.219738 1435.955083,384.919385 1438.683581,388.954947 1443.038174,397.528527"/>
    <poly id="1046862929" type="landuse.grass" color="194,194,130" fill="1" layer="-3.00" shape="1434.974394,378.219738 1426.023505,380.239305 1425.306099,382.836475 1405.784587,387.311486 1403.920636,385.260074 1385.863819,389.347224 1389.936550,409.610711 1443.038174,397.528527 1438.683581,388.954947 1435.955083,384.919385 1434.974394,378.219738"/>
    <poly id="1047147090" type="landuse.grass" color="194,194,130" fill="1" layer="-3.00" shape="399.867459,306.578865 396.698561,303.243427 393.162352,298.947964 385.629052,287.919110 375.570759,272.583734 361.032838,300.254504 368.803191,301.675062 377.481215,305.167671 381.168724,307.078511 383.272564,307.666576 387.459505,309.444049 389.425680,309.946120 393.169641,310.409151 395.217623,310.308541 397.337208,309.449688 398.086814,308.342731 399.867459,306.578865"/>
    <poly id="1047147091" type="natural.scrub" color="140,196,107" fill="1" layer="-4.00" shape="399.867459,306.578865 404.380200,308.972340 413.885852,311.512128 429.478964,315.197962 429.362402,316.691608 425.343178,316.368122 411.772942,316.076291 399.866152,318.885932 385.878100,318.425307 369.040867,316.513958 367.321959,319.233447 357.199843,314.281490 356.843446,314.745548 355.413996,313.953512 357.026853,310.424039 356.194820,309.941578 361.032838,300.254504 368.803191,301.675062 377.481215,305.167671 381.168724,307.078511 383.272564,307.666576 387.459505,309.444049 389.425680,309.946120 393.169641,310.409151 395.217623,310.308541 397.337208,309.449688 398.086814,308.342731 399.867459,306.578865"/>
    <poly id="1047147097" type="landuse.grass" color="194,194,130" fill="1" layer="-3.00" shape="343.094384,251.620700 322.585136,292.697918 353.388789,308.601151 373.625222,269.622033 370.155440,264.334776 343.094384,251.620700"/>
    <poly id="1047147098" type="landuse.grass" color="194,194,130" fill="1" layer="-3.00" shape="328.723532,244.870461 340.425982,250.366276 319.917727,291.487994 308.036120,285.250624 328.723532,244.870461"/>
    <poly id="1047147099" type="landuse.grass" color="194,194,130" fill="1" layer="-3.00" shape="408.729977,283.227898 404.237342,269.383759 405.487967,268.833305 420.927084,263.642738 418.802090,256.834838 421.426028,256.065072 423.054564,257.576045 420.353784,281.748670 408.729977,283.227898"/>
    <poly id="1047147100" type="landuse.grass" color="194,194,130" fill="1" layer="-3.00" shape="398.961597,273.672422 399.002185,271.501664 400.254901,270.428170 402.245633,269.883719 406.961898,283.400249 405.872366,283.557702 398.961597,273.672422"/>
    <poly id="1047147101" type="landuse.grass" color="194,194,130" fill="1" layer="-3.00" shape="406.389754,286.406114 410.393981,292.538480 420.048400,294.741189 420.604628,284.825485 406.389754,286.406114"/>
    <poly id="1047147103" type="landuse.grass" color="194,194,130" fill="1" layer="-3.00" shape="522.298861,309.845239 512.576668,312.595561 503.009191,314.352160 489.437340,316.152121 463.195589,319.398540 429.606140,323.774487 430.105026,321.760582 431.876947,321.454624 433.207503,317.742208 434.632047,316.765098 436.839257,315.258943 439.089673,314.174686 461.849681,311.894748 496.031762,307.606172 504.739741,306.280132 517.610147,303.449613 521.005419,302.562834 522.298861,309.845239"/>
    <poly id="1051080404" type="leisure.sports_centre" color="207,245,201" fill="1" layer="-2.00" shape="834.485905,475.394968 807.436752,429.907683 891.866895,380.903147 913.016492,368.623512 913.217622,368.507842 920.646837,364.272833 948.896182,412.839059 943.267700,415.599240 834.485905,475.394968"/>
    <poly id="1051080411" type="amenity.school" color="237,199,199" fill="1" layer="-2.00" shape="1072.409733,444.715279 1103.270522,497.943394 1073.413670,514.674039 1010.763179,549.780123 1006.082068,552.397149 985.620934,512.250941 1013.749744,495.980326 1007.988644,485.824330 1045.909778,465.033768 1043.733492,460.808321 1072.409733,444.715279"/>
    <poly id="1051080412" type="amenity.bicycle_parking" color="237,199,199" fill="1" layer="-1.00" shape="985.489032,570.550687 984.493228,568.780911 968.579812,577.718914 969.575863,579.499808 985.489032,570.550687"/>
    <poly id="1051080413" type="amenity.bicycle_parking" color="237,199,199" fill="1" layer="-1.00" shape="1043.534259,537.825919 1042.616020,536.187969 1026.695610,545.125927 1027.620638,546.763726 1043.534259,537.825919"/>
    <poly id="1052940882" type="traffic_sign.DE:274.1" color="black" fill="0" layer="0.00" shape="1359.903769,454.818524 1357.014025,443.375633 1356.486524,441.284026 1353.082209,433.646797"/>
    <poly id="1052940883" type="traffic_sign.DE:274.1" color="black" fill="0" layer="0.00" shape="1384.128224,554.805613 1381.579523,543.744750 1381.571478,536.823652 1372.814813,500.338130 1368.514459,482.405245 1364.866163,474.784445"/>
    <poly id="1053215201" type="amenity.bicycle_parking" color="237,199,199" fill="1" layer="-1.00" shape="1509.237865,634.828581 1509.108516,633.874433 1522.327664,632.118322 1522.457010,633.072471 1509.237865,634.828581"/>
    <poly id="1053215205" type="traffic_sign.DE:274.1" color="black" fill="0" layer="0.00" shape="1573.076062,628.367421 1585.555067,628.474713"/>
    <poly id="1053215207" type="amenity.bicycle_parking" color="237,199,199" fill="1" layer="-1.00" shape="1567.810294,626.890579 1567.687984,625.947404 1582.039294,624.122353 1582.168629,625.076503 1567.810294,626.890579"/>
    <poly id="1053215210" type="amenity.parking" color="184,184,179" fill="1" layer="-1.00" shape="1576.666570,634.910257 1573.147674,630.101746 1528.584424,635.465246 1531.789579,639.891084 1576.666570,634.910257"/>
    <poly id="1053215211" type="amenity.parking" color="184,184,179" fill="1" layer="-1.00" shape="1530.607992,632.060788 1529.963982,626.477680 1564.779883,622.383031 1565.337601,627.745467 1530.607992,632.060788"/>
    <poly id="1053215212" type="amenity.parking" color="184,184,179" fill="1" layer="-1.00" shape="1500.047409,643.919162 1496.847320,639.415342 1520.372625,636.489382 1523.740626,640.911676 1500.047409,643.919162"/>
    <poly id="1053215410" type="traffic_sign.DE:274.1" color="black" fill="0" layer="0.00" shape="1486.563383,641.920017 1491.336704,639.791058 1496.217621,637.615256 1526.263085,633.913339 1530.765425,633.370405 1565.539359,629.221033 1573.076062,628.367421"/>
    <poly id="1054644312" type="traffic_sign.DE:274.1" color="black" fill="0" layer="0.00" shape="1585.555067,628.474713 1585.854826,635.400594 1583.572139,646.566479 1581.671920,649.400736 1577.726116,651.188936 1572.466754,652.193368"/>
    <poly id="1054644313" type="traffic_sign.DE:274.1" color="black" fill="0" layer="0.00" shape="1572.466754,652.193368 1547.049357,657.074106"/>
    <poly id="1054644315" type="traffic_sign.DE:274.1" color="black" fill="0" layer="0.00" shape="1481.435064,669.872365 1441.195839,677.713113 1419.484715,681.957546 1414.318518,681.313261 1411.829031,678.585556 1407.014973,668.542051 1405.591999,663.354235"/>
    <poly id="1054672705" type="traffic_sign.DE:274.1" color="black" fill="0" layer="0.00" shape="1327.352318,367.464418 1325.369188,360.564062 1304.359140,306.341197 1296.511582,286.082074 1288.872367,266.352542"/>
    <poly id="1054719899" type="traffic_sign.DE:274.1" color="black" fill="0" layer="0.00" shape="1848.309601,454.795725 1848.494295,456.427453 1851.067268,478.370604 1851.932912,485.740452 1858.973702,545.653695 1860.763367,560.269728"/>
    <poly id="1054720881" type="traffic_sign.DE:274.1" color="black" fill="0" layer="0.00" shape="1868.843551,623.988299 1869.575938,628.968643 1870.298408,633.804546 1871.243378,640.137830"/>
    <poly id="1054723332" type="traffic_sign.DE:274.1" color="black" fill="0" layer="0.00" shape="1954.377164,214.773294 1933.662268,173.883327 1926.518558,159.995175"/>
    <poly id="1054727541" type="amenity.parking" color="184,184,179" fill="1" layer="-1.00" shape="1203.670793,335.974893 1200.557726,332.059111 1216.680759,319.289494 1219.793820,323.205286 1203.670793,335.974893"/>
    <poly id="1054727542" type="amenity.parking" color="184,184,179" fill="1" layer="-1.00" shape="1261.589706,220.901341 1260.322052,216.311061 1248.067083,219.682572 1249.334989,224.283972 1252.391881,223.438459 1261.589706,220.901341"/>
    <poly id="1054727543" type="amenity.parking" color="184,184,179" fill="1" layer="-1.00" shape="1233.421665,231.429532 1230.071795,228.175410 1227.704852,230.775169 1225.155431,234.970132 1223.777485,238.405158 1222.881799,242.475068 1222.733490,245.015360 1222.727919,248.186806 1222.854907,250.587569 1223.205333,253.584346 1227.650808,252.597286 1227.212658,247.443694 1227.131474,243.406196 1226.107103,243.128075 1227.099485,240.380226 1227.878851,240.630303 1229.000159,237.879645 1230.503640,235.220807 1231.688928,233.536991 1233.421665,231.429532"/>
    <poly id="1054727544" type="amenity.parking" color="184,184,179" fill="1" layer="-1.00" shape="1225.242455,277.909086 1229.950360,278.374005 1230.008764,275.446212 1229.969021,271.441194 1229.822407,266.270122 1229.190389,260.631145 1228.589388,257.350514 1224.211772,258.336095 1224.931766,263.338889 1225.346168,268.337214 1225.468795,273.030328 1225.242455,277.909086"/>
    <poly id="1054745202" type="traffic_sign.DE:274.1" color="black" fill="0" layer="0.00" shape="1364.866163,474.784445 1359.903769,454.818524"/>