<?xml version="1.0" encoding="UTF-8"?>

<!-- generated on 2025-03-18 01:12:33 by Eclipse SUMO duarouter Version 1.22.0
<duarouterConfiguration xmlns:xsi="http://www.w3.org/2001/XMLSchema-instance" xsi:noNamespaceSchemaLocation="http://sumo.dlr.de/xsd/duarouterConfiguration.xsd">

    <input>
        <net-file value="C:\Users\FADEL\Documents\GitHub\TrafficSimulation\backend\2025-03-18-01-12-22\osm.net.xml"/>
        <route-files value="C:\Users\FADEL\Documents\GitHub\TrafficSimulation\backend\2025-03-18-01-12-22\osm.passenger.trips.xml"/>
    </input>

    <output>
        <output-file value="C:\Users\FADEL\Documents\GitHub\TrafficSimulation\backend\2025-03-18-01-12-22\osm.passenger.trips.xml.tmp"/>
        <write-trips value="true"/>
    </output>

    <time>
        <begin value="0"/>
        <end value="3600"/>
    </time>

    <report>
        <no-warnings value="true"/>
        <ignore-errors value="true"/>
        <no-step-log value="true"/>
    </report>

</duarouterConfiguration>
-->

<routes xmlns:xsi="http://www.w3.org/2001/XMLSchema-instance" xsi:noNamespaceSchemaLocation="http://sumo.dlr.de/xsd/routes_file.xsd">
    <vType id="veh_passenger" vClass="passenger"/>
    <trip id="veh1" type="veh_passenger" depart="7.47" departLane="best" from="4615628#1" to="-1144042325#1"/>
    <trip id="veh3" type="veh_passenger" depart="22.41" departLane="best" from="-4612974#0" to="1343427018#1"/>
    <trip id="veh4" type="veh_passenger" depart="29.88" departLane="best" from="-1055105774#1" to="-37452234#0"/>
    <trip id="veh5" type="veh_passenger" depart="37.35" departLane="best" from="281750887#0" to="194962397"/>
    <trip id="veh6" type="veh_passenger" depart="44.82" departLane="best" from="4083446#2" to="-1054716334#3"/>
    <trip id="veh8" type="veh_passenger" depart="59.76" departLane="best" from="1079028819#0" to="-27095671#1"/>
    <trip id="veh9" type="veh_passenger" depart="67.23" departLane="best" from="82652397#0" to="1076055688#0"/>
    <trip id="veh12" type="veh_passenger" depart="89.64" departLane="best" from="38596500#1" to="30825225"/>
    <trip id="veh13" type="veh_passenger" depart="97.11" departLane="best" from="176031291#0" to="902316106#0"/>
    <trip id="veh15" type="veh_passenger" depart="112.05" departLane="best" from="451342499#1" to="279930530#3"/>
    <trip id="veh16" type="veh_passenger" depart="119.52" departLane="best" departSpeed="max" from="4615497#0" to="25008074#2"/>
    <trip id="veh19" type="veh_passenger" depart="141.93" departLane="best" from="-1144042325#2" to="1054716334#3"/>
    <trip id="veh20" type="veh_passenger" depart="149.40" departLane="best" from="279930530#1" to="1096664770"/>
    <trip id="veh21" type="veh_passenger" depart="156.87" departLane="best" departSpeed="max" from="1083449370#0" to="-4612966#0"/>
    <trip id="veh22" type="veh_passenger" depart="164.34" departLane="best" from="-740538839" to="824274188#0"/>
    <trip id="veh23" type="veh_passenger" depart="171.81" departLane="best" from="281750887#0" to="271674186"/>
    <trip id="veh24" type="veh_passenger" depart="179.28" departLane="best" from="-271049536#1" to="30825182"/>
    <trip id="veh25" type="veh_passenger" depart="186.75" departLane="best" from="-268524821#1" to="1108013674#1"/>
    <trip id="veh26" type="veh_passenger" depart="194.22" departLane="best" from="932653429#0" to="282627234#1"/>
    <trip id="veh27" type="veh_passenger" depart="201.69" departLane="best" departSpeed="max" from="4612966#0" to="316869460#0"/>
    <trip id="veh29" type="veh_passenger" depart="216.63" departLane="best" from="1055112019#0" to="-903119451#1"/>
    <trip id="veh30" type="veh_passenger" depart="224.10" departLane="best" from="-448076850#2" to="82639457#3"/>
    <trip id="veh31" type="veh_passenger" depart="231.57" departLane="best" from="4615536#5" to="1057632488#2"/>
    <trip id="veh32" type="veh_passenger" depart="239.04" departLane="best" from="281751681" to="1113717337#2"/>
    <trip id="veh34" type="veh_passenger" depart="253.98" departLane="best" departSpeed="max" from="-738290009#2" to="-4615623#2"/>
    <trip id="veh35" type="veh_passenger" depart="261.45" departLane="best" departSpeed="max" from="19801548#0" to="-744938428#0"/>
    <trip id="veh36" type="veh_passenger" depart="268.92" departLane="best" from="246044848" to="48907691#2"/>
    <trip id="veh38" type="veh_passenger" depart="283.87" departLane="best" from="973573911" to="156364562#1"/>
    <trip id="veh39" type="veh_passenger" depart="291.34" departLane="best" from="-1152689711#1" to="281479938"/>
    <trip id="veh40" type="veh_passenger" depart="298.81" departLane="best" departSpeed="max" from="333934676#0" to="1144041686"/>
    <trip id="veh41" type="veh_passenger" depart="306.28" departLane="best" from="-1098102371#1" to="1108013674#2"/>
    <trip id="veh42" type="veh_passenger" depart="313.75" departLane="best" from="973573911" to="188044903#0"/>
    <trip id="veh43" type="veh_passenger" depart="321.22" departLane="best" from="-1054720881#2" to="29290632#1"/>
    <trip id="veh44" type="veh_passenger" depart="328.69" departLane="best" from="284757122#1" to="188044903#0"/>
    <trip id="veh45" type="veh_passenger" depart="336.16" departLane="best" from="-740538839" to="282627234#1"/>
    <trip id="veh46" type="veh_passenger" depart="343.63" departLane="best" from="-1152689711#3" to="1145624490"/>
    <trip id="veh47" type="veh_passenger" depart="351.10" departLane="best" departSpeed="max" from="1152640374#0" to="82652816"/>
    <trip id="veh48" type="veh_passenger" depart="358.57" departLane="best" from="4615536#4" to="-82652406#0"/>
    <trip id="veh49" type="veh_passenger" depart="366.04" departLane="best" from="1278768565#1" to="-29202594#0"/>
    <trip id="veh51" type="veh_passenger" depart="380.98" departLane="best" from="1054776615#2" to="282181784"/>
    <trip id="veh52" type="veh_passenger" depart="388.45" departLane="best" from="270699937#2" to="-268524821#3"/>
    <trip id="veh53" type="veh_passenger" depart="395.92" departLane="best" from="312533961#0" to="188044903#0"/>
    <trip id="veh55" type="veh_passenger" depart="410.86" departLane="best" from="-1052940882#0" to="1057635873#1"/>
    <trip id="veh57" type="veh_passenger" depart="425.80" departLane="best" from="4615546#0" to="451342498#1"/>
    <trip id="veh58" type="veh_passenger" depart="433.27" departLane="best" from="4615536#6" to="82652397#0"/>
    <trip id="veh59" type="veh_passenger" depart="440.74" departLane="best" from="-1108127004#0" to="1266468822#1"/>
    <trip id="veh60" type="veh_passenger" depart="448.21" departLane="best" departSpeed="max" from="-1100718207" to="312534044#3"/>
    <trip id="veh61" type="veh_passenger" depart="455.68" departLane="best" from="1163706502#4" to="195407521"/>
    <trip id="veh62" type="veh_passenger" depart="463.15" departLane="best" departSpeed="max" from="-738290009#2" to="4615546#4"/>
    <trip id="veh63" type="veh_passenger" depart="470.62" departLane="best" from="1133761819#0" to="-4612974#0"/>
    <trip id="veh64" type="veh_passenger" depart="478.09" departLane="best" from="188047750" to="30825225"/>
    <trip id="veh66" type="veh_passenger" depart="493.03" departLane="best" from="1144042325#1" to="168943642#6"/>
    <trip id="veh67" type="veh_passenger" depart="500.50" departLane="best" from="-1266468817#0" to="-4615497#0"/>
    <trip id="veh68" type="veh_passenger" depart="507.97" departLane="best" from="1076055688#1" to="25086767#2"/>
    <trip id="veh69" type="veh_passenger" depart="515.44" departLane="best" departSpeed="max" from="-1100718207" to="281750887#0"/>
    <trip id="veh71" type="veh_passenger" depart="530.38" departLane="best" from="4615496#4" to="-1107965741"/>
    <trip id="veh72" type="veh_passenger" depart="537.85" departLane="best" from="-4615546#3" to="285844578#1"/>
    <trip id="veh73" type="veh_passenger" depart="545.32" departLane="best" departSpeed="max" from="-4612427#2" to="-194962398#1"/>
    <trip id="veh74" type="veh_passenger" depart="552.79" departLane="best" from="824127300#0" to="246044843#0"/>
    <trip id="veh75" type="veh_passenger" depart="560.26" departLane="best" from="38596500#1" to="-316869462#2"/>
    <trip id="veh76" type="veh_passenger" depart="567.73" departLane="best" from="-1144042324#0" to="1144961590#0"/>
    <trip id="veh77" type="veh_passenger" depart="575.20" departLane="best" from="1133761819#0" to="1168438410"/>
    <trip id="veh78" type="veh_passenger" depart="582.67" departLane="best" from="932638437" to="-1152640374#0"/>
    <trip id="veh80" type="veh_passenger" depart="597.61" departLane="best" departSpeed="max" from="4615497#0" to="-4615628#0"/>
    <trip id="veh83" type="veh_passenger" depart="620.02" departLane="best" from="-4615628#4" to="76865763#1"/>
    <trip id="veh85" type="veh_passenger" depart="634.96" departLane="best" departSpeed="max" from="19801548#0" to="-1079028822#0"/>
    <trip id="veh86" type="veh_passenger" depart="642.43" departLane="best" from="973573912" to="4612427#1"/>
    <trip id="veh87" type="veh_passenger" depart="649.90" departLane="best" from="831658811#1" to="824127300#0"/>
    <trip id="veh88" type="veh_passenger" depart="657.37" departLane="best" from="4612974#0" to="-273390876#1"/>
    <trip id="veh92" type="veh_passenger" depart="687.25" departLane="best" departSpeed="max" from="-738290009#2" to="316869460#0"/>
    <trip id="veh93" type="veh_passenger" depart="694.72" departLane="best" departSpeed="max" from="1152640374#0" to="1144041686"/>
    <trip id="veh94" type="veh_passenger" depart="702.19" departLane="best" from="82652397#0" to="973573910"/>
    <trip id="veh95" type="veh_passenger" depart="709.66" departLane="best" departSpeed="max" from="19801548#0" to="29202594#1"/>
    <trip id="veh96" type="veh_passenger" depart="717.13" departLane="best" from="-25008074#4" to="1055089222"/>
    <trip id="veh97" type="veh_passenger" depart="724.60" departLane="best" from="831658811#1" to="25008074#6"/>
    <trip id="veh98" type="veh_passenger" depart="732.07" departLane="best" departSpeed="max" from="18997847#0" to="312176585"/>
    <trip id="veh99" type="veh_passenger" depart="739.54" departLane="best" from="-1083226610" to="25086767#0"/>
    <trip id="veh100" type="veh_passenger" depart="747.01" departLane="best" departSpeed="max" from="1288993916#0" to="4615496#2"/>
    <trip id="veh101" type="veh_passenger" depart="754.48" departLane="best" from="-25008074#7" to="830728708#3"/>
    <trip id="veh102" type="veh_passenger" depart="761.95" departLane="best" from="-1108013666" to="-310176513#2"/>
    <trip id="veh103" type="veh_passenger" depart="769.42" departLane="best" from="25086766" to="287764737#0"/>
    <trip id="veh104" type="veh_passenger" depart="776.89" departLane="best" from="-4615536#6" to="-1323456347#7"/>
    <trip id="veh105" type="veh_passenger" depart="784.36" departLane="best" from="25008074#9" to="280669754"/>
    <trip id="veh106" type="veh_passenger" depart="791.83" departLane="best" from="1133761788" to="25086766"/>
    <trip id="veh108" type="veh_passenger" depart="806.77" departLane="best" from="-37452234#0" to="29185666"/>
    <trip id="veh109" type="veh_passenger" depart="814.25" departLane="best" departSpeed="max" from="-4615546#4" to="1113717337#2"/>
    <trip id="veh110" type="veh_passenger" depart="821.72" departLane="best" from="1055112019#1" to="312533961#0"/>
    <trip id="veh111" type="veh_passenger" depart="829.19" departLane="best" departSpeed="max" from="-1100718207" to="1163706507#1"/>
    <trip id="veh112" type="veh_passenger" depart="836.66" departLane="best" from="973573912" to="973573911"/>
    <trip id="veh113" type="veh_passenger" depart="844.13" departLane="best" departSpeed="max" from="-738290009#2" to="824274187#2"/>
    <trip id="veh114" type="veh_passenger" depart="851.60" departLane="best" from="4615547#0" to="4615597#1"/>
    <trip id="veh115" type="veh_passenger" depart="859.07" departLane="best" departSpeed="max" from="1083449370#0" to="-271049536#0"/>
    <trip id="veh116" type="veh_passenger" depart="866.54" departLane="best" departSpeed="max" from="4612961#0" to="289837573"/>
    <trip id="veh117" type="veh_passenger" depart="874.01" departLane="best" from="270731299" to="932638437"/>
    <trip id="veh118" type="veh_passenger" depart="881.48" departLane="best" from="281750887#3" to="-1054719899#1"/>
    <trip id="veh119" type="veh_passenger" depart="888.95" departLane="best" departSpeed="max" from="44619068#0" to="1055105506#1"/>
    <trip id="veh120" type="veh_passenger" depart="896.42" departLane="best" from="282627557" to="82639450"/>
    <trip id="veh121" type="veh_passenger" depart="903.89" departLane="best" from="-1145624509#1" to="195407521"/>
    <trip id="veh123" type="veh_passenger" depart="918.83" departLane="best" departSpeed="max" from="289830064" to="-43087099#2"/>
    <trip id="veh124" type="veh_passenger" depart="926.30" departLane="best" from="279930530#0" to="-82652406#0"/>
    <trip id="veh125" type="veh_passenger" depart="933.77" departLane="best" from="1186656843#0" to="708296764#2"/>
    <trip id="veh127" type="veh_passenger" depart="948.71" departLane="best" from="1133761819#0" to="1054672705#1"/>
    <trip id="veh128" type="veh_passenger" depart="956.18" departLane="best" from="-1054672705#0" to="31609650#3"/>
    <trip id="veh129" type="veh_passenger" depart="963.65" departLane="best" from="279930530#3" to="-740538839"/>
    <trip id="veh130" type="veh_passenger" depart="971.12" departLane="best" from="29383966" to="195407521"/>
    <trip id="veh131" type="veh_passenger" depart="978.59" departLane="best" from="1133761829" to="-1054720881#0"/>
    <trip id="veh132" type="veh_passenger" depart="986.06" departLane="best" from="-1102434983" to="4615623#1"/>
    <trip id="veh133" type="veh_passenger" depart="993.53" departLane="best" from="48907691#1" to="194962398#0"/>
    <trip id="veh134" type="veh_passenger" depart="1001.00" departLane="best" departSpeed="max" from="4612961#0" to="25086766"/>
    <trip id="veh135" type="veh_passenger" depart="1008.47" departLane="best" from="1055105774#1" to="54698846#0"/>
    <trip id="veh137" type="veh_passenger" depart="1023.41" departLane="best" from="4616518" to="-4612966#0"/>
    <trip id="veh138" type="veh_passenger" depart="1030.88" departLane="best" from="-4615628#1" to="-1153905265#0"/>
    <trip id="veh140" type="veh_passenger" depart="1045.82" departLane="best" from="1113717337#0" to="280669754"/>
    <trip id="veh141" type="veh_passenger" depart="1053.29" departLane="best" from="4615497#1" to="932637355#1"/>
    <trip id="veh142" type="veh_passenger" depart="1060.76" departLane="best" from="419527299" to="4615599#1"/>
    <trip id="veh143" type="veh_passenger" depart="1068.23" departLane="best" from="-1055105506#0" to="310145076#2"/>
    <trip id="veh144" type="veh_passenger" depart="1075.70" departLane="best" from="1057635874#7" to="824274187#0"/>
    <trip id="veh145" type="veh_passenger" depart="1083.17" departLane="best" from="37451591#0" to="4615536#2"/>
    <trip id="veh146" type="veh_passenger" depart="1090.64" departLane="best" from="419527299" to="-903119451#0"/>
    <trip id="veh147" type="veh_passenger" depart="1098.11" departLane="best" from="-4615496#1" to="37451591#1"/>
    <trip id="veh148" type="veh_passenger" depart="1105.58" departLane="best" from="1153905265#0" to="1055107176#1"/>
    <trip id="veh149" type="veh_passenger" depart="1113.05" departLane="best" departSpeed="max" from="333934676#0" to="-4615497#2"/>
    <trip id="veh150" type="veh_passenger" depart="1120.52" departLane="best" from="-1054776615#4" to="-31748765#3"/>
    <trip id="veh151" type="veh_passenger" depart="1127.99" departLane="best" from="1057635873#1" to="4615536#2"/>
    <trip id="veh152" type="veh_passenger" depart="1135.46" departLane="best" from="830728708#3" to="1054716334#4"/>
    <trip id="veh153" type="veh_passenger" depart="1142.93" departLane="best" from="280939673#0" to="1124564944"/>
    <trip id="veh154" type="veh_passenger" depart="1150.40" departLane="best" from="932637377" to="188044903#0"/>
    <trip id="veh156" type="veh_passenger" depart="1165.34" departLane="best" from="830728708#0" to="-902316106#0"/>
    <trip id="veh157" type="veh_passenger" depart="1172.81" departLane="best" from="-1152640374#1" to="1145624490"/>
    <trip id="veh158" type="veh_passenger" depart="1180.28" departLane="best" from="291270698#2" to="1057632488#1"/>
    <trip id="veh159" type="veh_passenger" depart="1187.75" departLane="best" from="268524821#2" to="168943639#2"/>
    <trip id="veh160" type="veh_passenger" depart="1195.22" departLane="best" from="1100884511#2" to="246044848"/>
    <trip id="veh161" type="veh_passenger" depart="1202.69" departLane="best" from="-4616246#1" to="289967595#0"/>
    <trip id="veh162" type="veh_passenger" depart="1210.16" departLane="best" from="182622175#1" to="29290632#0"/>
    <trip id="veh163" type="veh_passenger" depart="1217.63" departLane="best" from="302694753#0" to="286689291"/>
    <trip id="veh164" type="veh_passenger" depart="1225.10" departLane="best" departSpeed="max" from="1083449370#0" to="-1107965739#0"/>
    <trip id="veh165" type="veh_passenger" depart="1232.57" departLane="best" from="282836232#0" to="1057635874#9"/>
    <trip id="veh166" type="veh_passenger" depart="1240.04" departLane="best" from="1055108444" to="4612974#0"/>
    <trip id="veh167" type="veh_passenger" depart="1247.51" departLane="best" departSpeed="max" from="289830064" to="1055105774#0"/>
    <trip id="veh168" type="veh_passenger" depart="1254.98" departLane="best" from="1055106801" to="1133761788"/>
    <trip id="veh170" type="veh_passenger" depart="1269.92" departLane="best" departSpeed="max" from="-1307034421#1" to="1144041685#1"/>
    <trip id="veh173" type="veh_passenger" depart="1292.33" departLane="best" from="1054776615#3" to="195407521"/>
    <trip id="veh174" type="veh_passenger" depart="1299.80" departLane="best" from="1133799612" to="25008074#7"/>
    <trip id="veh175" type="veh_passenger" depart="1307.27" departLane="best" from="281751681" to="1163706507#4"/>
    <trip id="veh176" type="veh_passenger" depart="1314.74" departLane="best" from="1144961567#1" to="-4612976#0"/>
    <trip id="veh177" type="veh_passenger" depart="1322.21" departLane="best" from="1163706502#3" to="54698846#2"/>
    <trip id="veh178" type="veh_passenger" depart="1329.68" departLane="best" departSpeed="max" from="333934676#0" to="-279673429"/>
    <trip id="veh179" type="veh_passenger" depart="1337.15" departLane="best" from="-1108046818" to="168943642#2"/>
    <trip id="veh180" type="veh_passenger" depart="1344.62" departLane="best" departSpeed="max" from="279673429" to="1069691169#0"/>
    <trip id="veh181" type="veh_passenger" depart="1352.10" departLane="best" departSpeed="max" from="44619068#0" to="312176585"/>
    <trip id="veh182" type="veh_passenger" depart="1359.57" departLane="best" from="284729550#1" to="-4615497#0"/>
    <trip id="veh183" type="veh_passenger" depart="1367.04" departLane="best" from="-31912630#0" to="-1055107176#0"/>
    <trip id="veh184" type="veh_passenger" depart="1374.51" departLane="best" from="4612976#0" to="-1108013689#1"/>
    <trip id="veh185" type="veh_passenger" depart="1381.98" departLane="best" from="1133761786" to="281750887#0"/>
    <trip id="veh186" type="veh_passenger" depart="1389.45" departLane="best" from="-316869462#0" to="288403579#1"/>
    <trip id="veh187" type="veh_passenger" depart="1396.92" departLane="best" from="1238244929" to="-4615603#0"/>
    <trip id="veh188" type="veh_passenger" depart="1404.39" departLane="best" from="281751681" to="-1054716334#0"/>
    <trip id="veh189" type="veh_passenger" depart="1411.86" departLane="best" from="30825225" to="31609650#2"/>
    <trip id="veh190" type="veh_passenger" depart="1419.33" departLane="best" from="-1145624492" to="1144042325#1"/>
    <trip id="veh191" type="veh_passenger" depart="1426.80" departLane="best" from="-273390876#2" to="830728708#2"/>
    <trip id="veh192" type="veh_passenger" depart="1434.27" departLane="best" from="1323456347#3" to="-1079028822#0"/>
    <trip id="veh193" type="veh_passenger" depart="1441.74" departLane="best" from="-4615628#1" to="4612974#1"/>
    <trip id="veh194" type="veh_passenger" depart="1449.21" departLane="best" from="1152689711#0" to="370617120#0"/>
    <trip id="veh195" type="veh_passenger" depart="1456.68" departLane="best" from="25086766" to="82652816"/>
    <trip id="veh196" type="veh_passenger" depart="1464.15" departLane="best" from="4615628#1" to="273390876#2"/>
    <trip id="veh197" type="veh_passenger" depart="1471.62" departLane="best" departSpeed="max" from="289830064" to="1323456347#9"/>
    <trip id="veh198" type="veh_passenger" depart="1479.09" departLane="best" from="4612427#0" to="195407521"/>
    <trip id="veh199" type="veh_passenger" depart="1486.56" departLane="best" from="4616246#2" to="310145077#3"/>
    <trip id="veh200" type="veh_passenger" depart="1494.03" departLane="best" from="1163706502#4" to="-48907691#3"/>
    <trip id="veh201" type="veh_passenger" depart="1501.50" departLane="best" from="312533962#2" to="188044903#0"/>
    <trip id="veh202" type="veh_passenger" depart="1508.97" departLane="best" from="273390876#2" to="1054644315#2"/>
    <trip id="veh203" type="veh_passenger" depart="1516.44" departLane="best" from="-1107965739#0" to="1054723332"/>
    <trip id="veh204" type="veh_passenger" depart="1523.91" departLane="best" departSpeed="max" from="-82652816" to="1057632488#2"/>
    <trip id="veh205" type="veh_passenger" depart="1531.38" departLane="best" from="188047750" to="-23443935"/>
    <trip id="veh206" type="veh_passenger" depart="1538.85" departLane="best" from="-4615536#1" to="288354369"/>
    <trip id="veh207" type="veh_passenger" depart="1546.32" departLane="best" from="288403579#1" to="-1100718203"/>
    <trip id="veh208" type="veh_passenger" depart="1553.79" departLane="best" from="1113717337#2" to="188047750"/>
    <trip id="veh209" type="veh_passenger" depart="1561.26" departLane="best" from="1133761786" to="-4612427#1"/>
    <trip id="veh210" type="veh_passenger" depart="1568.73" departLane="best" from="1133761788" to="708296764#1"/>
    <trip id="veh211" type="veh_passenger" depart="1576.20" departLane="best" from="4615496#1" to="316092515"/>
    <trip id="veh212" type="veh_passenger" depart="1583.67" departLane="best" from="1083449383#1" to="-1054716334#1"/>
    <trip id="veh213" type="veh_passenger" depart="1591.14" departLane="best" from="1083226575" to="312533961#0"/>
    <trip id="veh215" type="veh_passenger" depart="1606.08" departLane="best" from="19001381" to="270731300#0"/>
    <trip id="veh217" type="veh_passenger" depart="1621.02" departLane="best" from="1144041686" to="-1055112136#0"/>
    <trip id="veh218" type="veh_passenger" depart="1628.49" departLane="best" from="1069691169#1" to="287764737#2"/>
    <trip id="veh219" type="veh_passenger" depart="1635.96" departLane="best" from="1163706502#1" to="-168943642#4"/>
    <trip id="veh220" type="veh_passenger" depart="1643.43" departLane="best" departSpeed="max" from="273390876#0" to="-1055108444"/>
    <trip id="veh222" type="veh_passenger" depart="1658.37" departLane="best" from="-1323456347#9" to="1163706507#2"/>
    <trip id="veh223" type="veh_passenger" depart="1665.84" departLane="best" from="-1076055688#1" to="1108013674#1"/>
    <trip id="veh224" type="veh_passenger" depart="1673.31" departLane="best" from="-4612427#0" to="1057635874#5"/>
    <trip id="veh225" type="veh_passenger" depart="1680.78" departLane="best" from="312533961#0" to="1108013674#1"/>
    <trip id="veh226" type="veh_passenger" depart="1688.25" departLane="best" from="-4615743#1" to="-1113717337#2"/>
    <trip id="veh227" type="veh_passenger" depart="1695.72" departLane="best" from="-1054776615#0" to="188044903#0"/>
    <trip id="veh228" type="veh_passenger" depart="1703.19" departLane="best" from="973573912" to="1083226613#2"/>
    <trip id="veh229" type="veh_passenger" depart="1710.66" departLane="best" from="281750887#0" to="316869460#0"/>
    <trip id="veh230" type="veh_passenger" depart="1718.13" departLane="best" from="281750887#3" to="312533962#1"/>
    <trip id="veh231" type="veh_passenger" depart="1725.60" departLane="best" from="82639450" to="-37452234#1"/>
    <trip id="veh232" type="veh_passenger" depart="1733.07" departLane="best" from="-1054776615#0" to="-268524821#2"/>
    <trip id="veh233" type="veh_passenger" depart="1740.54" departLane="best" departSpeed="max" from="-1307034421#1" to="285844578#1"/>
    <trip id="veh236" type="veh_passenger" depart="1762.95" departLane="best" from="-27095671#1" to="271049534"/>
    <trip id="veh237" type="veh_passenger" depart="1770.42" departLane="best" from="30825182" to="-1307034421#0"/>
    <trip id="veh238" type="veh_passenger" depart="1777.89" departLane="best" departSpeed="max" from="44619068#0" to="830728708#4"/>
    <trip id="veh239" type="veh_passenger" depart="1785.36" departLane="best" from="-1152640374#1" to="-1055108439"/>
    <trip id="veh240" type="veh_passenger" depart="1792.83" departLane="best" from="1055107176#1" to="287764737#2"/>
    <trip id="veh241" type="veh_passenger" depart="1800.30" departLane="best" from="82652397#1" to="1113737283"/>
    <trip id="veh242" type="veh_passenger" depart="1807.77" departLane="best" departSpeed="max" from="289830064" to="-1108013699#1"/>
    <trip id="veh243" type="veh_passenger" depart="1815.24" departLane="best" from="-1144042387#0" to="316869460#0"/>
    <trip id="veh244" type="veh_passenger" depart="1822.71" departLane="best" from="4612976#0" to="270699937#3"/>
    <trip id="veh246" type="veh_passenger" depart="1837.65" departLane="best" from="316869462#1" to="1083226575"/>
    <trip id="veh247" type="veh_passenger" depart="1845.12" departLane="best" from="1133761829" to="1100718207"/>
    <trip id="veh248" type="veh_passenger" depart="1852.59" departLane="best" from="4612974#1" to="4083446#2"/>
    <trip id="veh251" type="veh_passenger" depart="1875.00" departLane="best" from="288403579#1" to="1145624492"/>
    <trip id="veh252" type="veh_passenger" depart="1882.47" departLane="best" departSpeed="max" from="29202594#0" to="830728708#4"/>
    <trip id="veh253" type="veh_passenger" depart="1889.94" departLane="best" departSpeed="max" from="-82652816" to="370617120#0"/>
    <trip id="veh254" type="veh_passenger" depart="1897.42" departLane="best" from="182622175#1" to="1266468822#1"/>
    <trip id="veh255" type="veh_passenger" depart="1904.89" departLane="best" from="1144041686" to="30825225"/>
    <trip id="veh256" type="veh_passenger" depart="1912.36" departLane="best" from="-82652406#0" to="4615496#1"/>
    <trip id="veh257" type="veh_passenger" depart="1919.83" departLane="best" from="4612427#0" to="-1144042325#0"/>
    <trip id="veh258" type="veh_passenger" depart="1927.30" departLane="best" from="4615547#1" to="-4615603#0"/>
    <trip id="veh260" type="veh_passenger" depart="1942.24" departLane="best" from="4612976#1" to="-29290632#0"/>
    <trip id="veh261" type="veh_passenger" depart="1949.71" departLane="best" from="-4612427#0" to="31912630#7"/>
    <trip id="veh263" type="veh_passenger" depart="1964.65" departLane="best" from="-1054720881#0" to="82652397#1"/>
    <trip id="veh264" type="veh_passenger" depart="1972.12" departLane="best" from="-1108127004#0" to="29290632#1"/>
    <trip id="veh265" type="veh_passenger" depart="1979.59" departLane="best" from="1230335185" to="31748765#3"/>
    <trip id="veh266" type="veh_passenger" depart="1987.06" departLane="best" from="286689291" to="1055107696"/>
    <trip id="veh267" type="veh_passenger" depart="1994.53" departLane="best" from="246044844#1" to="1230335185"/>
    <trip id="veh268" type="veh_passenger" depart="2002.00" departLane="best" from="168943639#6" to="1144042325#1"/>
    <trip id="veh269" type="veh_passenger" depart="2009.47" departLane="best" from="303406976#1" to="1057635874#9"/>
    <trip id="veh271" type="veh_passenger" depart="2024.41" departLane="best" from="-4615743#0" to="-1323456347#8"/>
    <trip id="veh273" type="veh_passenger" depart="2039.35" departLane="best" from="176031291#0" to="313039168#1"/>
    <trip id="veh275" type="veh_passenger" depart="2054.29" departLane="best" from="932637355#1" to="188044903#0"/>
    <trip id="veh276" type="veh_passenger" depart="2061.76" departLane="best" from="1054644312" to="-1152689711#1"/>
    <trip id="veh277" type="veh_passenger" depart="2069.23" departLane="best" from="-316869462#0" to="-4615497#1"/>
    <trip id="veh278" type="veh_passenger" depart="2076.70" departLane="best" from="168943642#5" to="1054644315#1"/>
    <trip id="veh279" type="veh_passenger" depart="2084.17" departLane="best" from="909402342" to="195407521"/>
    <trip id="veh282" type="veh_passenger" depart="2106.58" departLane="best" from="4615536#0" to="246044844#1"/>
    <trip id="veh283" type="veh_passenger" depart="2114.05" departLane="best" from="1163706502#2" to="1152689711#2"/>
    <trip id="veh284" type="veh_passenger" depart="2121.52" departLane="best" departSpeed="max" from="44619068#0" to="1124564944"/>
    <trip id="veh285" type="veh_passenger" depart="2128.99" departLane="best" from="-1102374826" to="281750887#0"/>
    <trip id="veh286" type="veh_passenger" depart="2136.46" departLane="best" from="-1079028820" to="-26287476#1"/>
    <trip id="veh287" type="veh_passenger" depart="2143.93" departLane="best" from="19801548#1" to="1055106802#0"/>
    <trip id="veh288" type="veh_passenger" depart="2151.40" departLane="best" from="973573909#1" to="-1323456347#4"/>
    <trip id="veh289" type="veh_passenger" depart="2158.87" departLane="best" from="312533962#1" to="27095671#5"/>
    <trip id="veh290" type="veh_passenger" depart="2166.34" departLane="best" from="31912630#4" to="-4615497#0"/>