<?xml version="1.0" encoding="UTF-8"?>

<!-- generated on 2025-03-26 01:24:25 by Eclipse SUMO duarouter Version 1.22.0
<duarouterConfiguration xmlns:xsi="http://www.w3.org/2001/XMLSchema-instance" xsi:noNamespaceSchemaLocation="http://sumo.dlr.de/xsd/duarouterConfiguration.xsd">

    <input>
        <net-file value="C:\Users\FADEL\Documents\GitHub\TrafficSimulation\public\2025-03-26-01-21-32\osm.net.xml"/>
        <route-files value="C:\Users\FADEL\Documents\GitHub\TrafficSimulation\public\2025-03-26-01-21-32\osm.passenger.trips.xml"/>
    </input>

    <output>
        <output-file value="C:\Users\FADEL\Documents\GitHub\TrafficSimulation\public\2025-03-26-01-21-32\osm.passenger.trips.xml.tmp"/>
        <write-trips value="true"/>
    </output>

    <time>
        <begin value="0"/>
        <end value="3600"/>
    </time>

    <report>
        <no-warnings value="true"/>
        <ignore-errors value="true"/>
        <no-step-log value="true"/>
    </report>

</duarouterConfiguration>
-->

<routes xmlns:xsi="http://www.w3.org/2001/XMLSchema-instance" xsi:noNamespaceSchemaLocation="http://sumo.dlr.de/xsd/routes_file.xsd">
    <vType id="veh_passenger" vClass="passenger"/>
    <trip id="veh0" type="veh_passenger" depart="0.00" departLane="best" from="288936976#6" to="-107457103"/>
    <trip id="veh1" type="veh_passenger" depart="0.95" departLane="best" from="-405813446#2" to="-33831834#9"/>
    <trip id="veh2" type="veh_passenger" depart="1.90" departLane="best" departSpeed="max" from="33832282" to="319524638"/>
    <trip id="veh3" type="veh_passenger" depart="2.84" departLane="best" from="69423971#1" to="-1171585984"/>
    <trip id="veh4" type="veh_passenger" depart="3.79" departLane="best" from="-942717444#0" to="-107457111#0"/>
    <trip id="veh5" type="veh_passenger" depart="4.74" departLane="best" from="-33489337#3" to="1093789231#5"/>
    <trip id="veh6" type="veh_passenger" depart="5.69" departLane="best" from="-107460087#0" to="-33488724#8"/>
    <trip id="veh7" type="veh_passenger" depart="6.64" departLane="best" from="315875637" to="1171580841"/>
    <trip id="veh8" type="veh_passenger" depart="7.59" departLane="best" from="-33489365#3" to="1172571197"/>
    <trip id="veh9" type="veh_passenger" depart="8.53" departLane="best" from="559917300" to="-1014320625#0"/>
    <trip id="veh10" type="veh_passenger" depart="9.48" departLane="best" from="559914548#2" to="33488508#2"/>
    <trip id="veh11" type="veh_passenger" depart="10.43" departLane="best" from="-69418874#2" to="-305675294#6"/>
    <trip id="veh12" type="veh_passenger" depart="11.38" departLane="best" from="903161312#0" to="-69408959#2"/>
    <trip id="veh13" type="veh_passenger" depart="12.33" departLane="best" from="-1171585903" to="-1171587385"/>
    <trip id="veh14" type="veh_passenger" depart="13.28" departLane="best" from="69408945#4" to="121145946#2"/>
    <trip id="veh15" type="veh_passenger" depart="14.22" departLane="best" from="559914555#1" to="33832183#0"/>
    <trip id="veh16" type="veh_passenger" depart="15.17" departLane="best" departSpeed="max" from="1171568467" to="942717452#20"/>
    <trip id="veh17" type="veh_passenger" depart="16.12" departLane="best" from="-69423992#5" to="1171581168"/>
    <trip id="veh18" type="veh_passenger" depart="17.07" departLane="best" from="69407781#0" to="1274592994"/>
    <trip id="veh19" type="veh_passenger" depart="18.02" departLane="best" from="69408956#1" to="1171587337#1"/>
    <trip id="veh20" type="veh_passenger" depart="18.97" departLane="best" departSpeed="max" from="33490051" to="-1087964674#4"/>
    <trip id="veh21" type="veh_passenger" depart="19.91" departLane="best" from="-33831832#2" to="-629638884#0"/>
    <trip id="veh22" type="veh_passenger" depart="20.86" departLane="best" from="-1171581056" to="-33832224#2"/>
    <trip id="veh23" type="veh_passenger" depart="21.81" departLane="best" departSpeed="max" from="-1171586168#1" to="-434983560"/>
    <trip id="veh24" type="veh_passenger" depart="22.76" departLane="best" from="262473509#0" to="-69423976#1"/>
    <trip id="veh25" type="veh_passenger" depart="23.71" departLane="best" from="-69423982" to="-33489343#0"/>
    <trip id="veh26" type="veh_passenger" depart="24.66" departLane="best" from="-382886232#2" to="786074814#0"/>
    <trip id="veh27" type="veh_passenger" depart="25.60" departLane="best" departSpeed="max" from="305676367#0" to="1217557918#6"/>
    <trip id="veh28" type="veh_passenger" depart="26.55" departLane="best" departSpeed="max" from="-305638298#2" to="33832167#0"/>
    <trip id="veh29" type="veh_passenger" depart="27.50" departLane="best" from="-262473510#1" to="-69423997#5"/>
    <trip id="veh30" type="veh_passenger" depart="28.45" departLane="best" from="972945924#2" to="259250251#4"/>
    <trip id="veh31" type="veh_passenger" depart="29.40" departLane="best" from="1171585966#1" to="33487455#2"/>
    <trip id="veh32" type="veh_passenger" depart="30.35" departLane="best" from="69408938#1" to="401911780#1"/>
    <trip id="veh33" type="veh_passenger" depart="31.29" departLane="best" from="-33831832#8" to="-107457118#0"/>
    <trip id="veh34" type="veh_passenger" depart="32.24" departLane="best" from="-69408934#0" to="-387421683#3"/>
    <trip id="veh35" type="veh_passenger" depart="33.19" departLane="best" from="-33488724#4" to="828995314#2"/>
    <trip id="veh36" type="veh_passenger" depart="34.14" departLane="best" from="69418888#1" to="-69408934#0"/>
    <trip id="veh37" type="veh_passenger" depart="35.09" departLane="best" from="315875677#0" to="-69467367"/>
    <trip id="veh38" type="veh_passenger" depart="36.03" departLane="best" departSpeed="max" from="69464840" to="1036826696#2"/>
    <trip id="veh39" type="veh_passenger" depart="36.98" departLane="best" from="-382884322#1" to="-365110740"/>
    <trip id="veh40" type="veh_passenger" depart="37.93" departLane="best" departSpeed="max" from="1171586204" to="-382884321#5"/>
    <trip id="veh41" type="veh_passenger" depart="38.88" departLane="best" from="1181770073#1" to="69423981#7"/>
    <trip id="veh42" type="veh_passenger" depart="39.83" departLane="best" departSpeed="max" from="-783797997" to="-33831832#9"/>
    <trip id="veh43" type="veh_passenger" depart="40.78" departLane="best" from="979395948" to="1101552059"/>
    <trip id="veh44" type="veh_passenger" depart="41.72" departLane="best" departSpeed="max" from="-1171582026" to="-1087964680#0"/>
    <trip id="veh45" type="veh_passenger" depart="42.67" departLane="best" departSpeed="max" from="-1171587485#1" to="149963567"/>
    <trip id="veh46" type="veh_passenger" depart="43.62" departLane="best" from="531712837#5" to="-942717444#1"/>
    <trip id="veh47" type="veh_passenger" depart="44.57" departLane="best" departSpeed="max" from="-1171254420#1" to="-69424001"/>
    <trip id="veh48" type="veh_passenger" depart="45.52" departLane="best" from="979395943#1" to="1158311141#1"/>
    <trip id="veh49" type="veh_passenger" depart="46.47" departLane="best" from="942717452#14" to="69408954#8"/>
    <trip id="veh50" type="veh_passenger" depart="47.41" departLane="best" from="-107454367" to="33831832#17"/>
    <trip id="veh51" type="veh_passenger" depart="48.36" departLane="best" departSpeed="max" from="33488259#0" to="1171254421"/>
    <trip id="veh52" type="veh_passenger" depart="49.31" departLane="best" from="-382886232#1" to="259250252#1"/>
    <trip id="veh53" type="veh_passenger" depart="50.26" departLane="best" departSpeed="max" from="-1171587642" to="-942717452#40"/>
    <trip id="veh54" type="veh_passenger" depart="51.21" departLane="best" departSpeed="max" from="1014320624" to="903161312#1"/>
    <trip id="veh55" type="veh_passenger" depart="52.16" departLane="best" from="69418887#1" to="-382884322#3"/>
    <trip id="veh56" type="veh_passenger" depart="53.10" departLane="best" from="1087953539#0" to="-33487455#17"/>
    <trip id="veh57" type="veh_passenger" depart="54.05" departLane="best" departSpeed="max" from="69464837#0" to="69418877#0"/>
    <trip id="veh58" type="veh_passenger" depart="55.00" departLane="best" from="-69407767#1" to="259250250#2"/>
    <trip id="veh59" type="veh_passenger" depart="55.95" departLane="best" from="149965939#1" to="-305638296"/>
    <trip id="veh60" type="veh_passenger" depart="56.90" departLane="best" from="382884324#0" to="1171569604#0"/>
    <trip id="veh61" type="veh_passenger" depart="57.85" departLane="best" departSpeed="max" from="434983560" to="1158311145"/>
    <trip id="veh62" type="veh_passenger" depart="58.79" departLane="best" from="-1013948619#1" to="-69408950#5"/>
    <trip id="veh63" type="veh_passenger" depart="59.74" departLane="best" from="-107457109#0" to="783823520#1"/>
    <trip id="veh64" type="veh_passenger" depart="60.69" departLane="best" from="69418895#6" to="69407783#1"/>
    <trip id="veh65" type="veh_passenger" depart="61.64" departLane="best" from="-69407785#0" to="-1157079681#1"/>
    <trip id="veh66" type="veh_passenger" depart="62.59" departLane="best" from="69418895#2" to="900307854#2"/>
    <trip id="veh67" type="veh_passenger" depart="63.54" departLane="best" departSpeed="max" from="-1171581380" to="107457118#8"/>
    <trip id="veh68" type="veh_passenger" depart="64.48" departLane="best" from="-1171570414" to="382884318#5"/>
    <trip id="veh69" type="veh_passenger" depart="65.43" departLane="best" from="382886243#1" to="-149965944#3"/>
    <trip id="veh70" type="veh_passenger" depart="66.38" departLane="best" departSpeed="max" from="107454378#0" to="1171580992"/>
    <trip id="veh71" type="veh_passenger" depart="67.33" departLane="best" from="-382884322#2" to="69418882#3"/>
    <trip id="veh72" type="veh_passenger" depart="68.28" departLane="best" from="-942717446#2" to="-33490051"/>
    <trip id="veh73" type="veh_passenger" depart="69.22" departLane="best" departSpeed="max" from="1171572979" to="33832183#1"/>
    <trip id="veh74" type="veh_passenger" depart="70.17" departLane="best" from="-33488060#11" to="-69408927#1"/>
    <trip id="veh75" type="veh_passenger" depart="71.12" departLane="best" departSpeed="max" from="979395943#0" to="262473507#1"/>
    <trip id="veh76" type="veh_passenger" depart="72.07" departLane="best" from="-966782502#0" to="1157079681#2"/>
    <trip id="veh77" type="veh_passenger" depart="73.02" departLane="best" departSpeed="max" from="-1172571206" to="-33832183#3"/>
    <trip id="veh78" type="veh_passenger" depart="73.97" departLane="best" from="-69408959#6" to="1172571152"/>
    <trip id="veh79" type="veh_passenger" depart="74.91" departLane="best" from="-1171580762#0" to="157768042#2"/>
    <trip id="veh80" type="veh_passenger" depart="75.86" departLane="best" from="-33831832#7" to="69423991"/>
    <trip id="veh81" type="veh_passenger" depart="76.81" departLane="best" from="69408954#2" to="-1171573018#0"/>
    <trip id="veh82" type="veh_passenger" depart="77.76" departLane="best" from="-33832188#9" to="315875662#0"/>
    <trip id="veh83" type="veh_passenger" depart="78.71" departLane="best" from="-33489187#3" to="-149965978#0"/>
    <trip id="veh84" type="veh_passenger" depart="79.66" departLane="best" from="783797542" to="1171586168#1"/>
    <trip id="veh85" type="veh_passenger" depart="80.60" departLane="best" departSpeed="max" from="107454372#0" to="43739459#1-AddedOffRampEdge"/>
    <trip id="veh86" type="veh_passenger" depart="81.55" departLane="best" from="559914555#3" to="-33488259#0"/>
    <trip id="veh87" type="veh_passenger" depart="82.50" departLane="best" departSpeed="max" from="-1171586074#1" to="-942717452#3"/>
    <trip id="veh88" type="veh_passenger" depart="83.45" departLane="best" from="-942717447#1" to="1060150654#2"/>
    <trip id="veh89" type="veh_passenger" depart="84.40" departLane="best" from="33832224#1" to="315875687#2"/>
    <trip id="veh90" type="veh_passenger" depart="85.35" departLane="best" from="942720854#0" to="-1171587537"/>
    <trip id="veh91" type="veh_passenger" depart="86.29" departLane="best" from="-785804455#0" to="-69418874#1"/>
    <trip id="veh92" type="veh_passenger" depart="87.24" departLane="best" from="69408956#1" to="-365110753#3"/>
    <trip id="veh93" type="veh_passenger" depart="88.19" departLane="best" from="-320180203#5" to="-979395952#7"/>
    <trip id="veh94" type="veh_passenger" depart="89.14" departLane="best" from="-942717444#0" to="-434983562"/>
    <trip id="veh95" type="veh_passenger" depart="90.09" departLane="best" from="-34262695#2" to="69467385#1"/>
    <trip id="veh96" type="veh_passenger" depart="91.04" departLane="best" from="-979395942#0" to="69408955#1"/>
    <trip id="veh97" type="veh_passenger" depart="91.98" departLane="best" from="1171582023" to="-1089084848#0"/>
    <trip id="veh98" type="veh_passenger" depart="92.93" departLane="best" from="979395952#4" to="69407786#1"/>
    <trip id="veh99" type="veh_passenger" depart="93.88" departLane="best" from="942717452#0" to="751067969#0"/>
    <trip id="veh100" type="veh_passenger" depart="94.83" departLane="best" from="69408947#4" to="-315875691"/>
    <trip id="veh101" type="veh_passenger" depart="95.78" departLane="best" from="107457111#1" to="-33490271#0"/>
    <trip id="veh102" type="veh_passenger" depart="96.73" departLane="best" from="-783823521#0" to="-1157079686#2"/>
    <trip id="veh103" type="veh_passenger" depart="97.67" departLane="best" from="-69423994" to="942720854#0"/>
    <trip id="veh104" type="veh_passenger" depart="98.62" departLane="best" from="-382884322#3" to="43739459#1"/>
    <trip id="veh105" type="veh_passenger" depart="99.57" departLane="best" from="1014320626#0" to="-942717445#1"/>
    <trip id="veh106" type="veh_passenger" depart="100.52" departLane="best" from="903161313#0" to="979395943#2"/>
    <trip id="veh107" type="veh_passenger" depart="101.47" departLane="best" departSpeed="max" from="1171585926" to="33491055#4"/>
    <trip id="veh108" type="veh_passenger" depart="102.41" departLane="best" from="-25985802#0" to="-69407764#0"/>
    <trip id="veh109" type="veh_passenger" depart="103.36" departLane="best" from="942717451" to="1171587485#1"/>
    <trip id="veh110" type="veh_passenger" depart="104.31" departLane="best" from="1171580883" to="353235797#0"/>
    <trip id="veh111" type="veh_passenger" depart="105.26" departLane="best" from="-1158311142#0" to="1172571038"/>
    <trip id="veh112" type="veh_passenger" depart="106.21" departLane="best" from="1087964675#0" to="69408950#4"/>
    <trip id="veh113" type="veh_passenger" depart="107.16" departLane="best" from="-262473504#0" to="903161319#3"/>
    <trip id="veh114" type="veh_passenger" depart="108.10" departLane="best" from="-1171581064" to="-33487731"/>
    <trip id="veh115" type="veh_passenger" depart="109.05" departLane="best" from="1268351626" to="315876995#1"/>
    <trip id="veh116" type="veh_passenger" depart="110.00" departLane="best" from="-33832183#2" to="-1274586344#0"/>
    <trip id="veh117" type="veh_passenger" depart="110.95" departLane="best" from="69423966#0" to="-353235802"/>
    <trip id="veh118" type="veh_passenger" depart="111.90" departLane="best" from="1268349147" to="1274592995"/>
    <trip id="veh120" type="veh_passenger" depart="113.79" departLane="best" from="1156812377#3" to="786074813#4"/>
    <trip id="veh121" type="veh_passenger" depart="114.74" departLane="best" from="-33488060#8" to="33490840#4"/>
    <trip id="veh122" type="veh_passenger" depart="115.69" departLane="best" from="-33832203#3" to="-69467367"/>
    <trip id="veh123" type="veh_passenger" depart="116.64" departLane="best" from="33487455#7" to="-69407773#6"/>
    <trip id="veh124" type="veh_passenger" depart="117.59" departLane="best" from="-69408936#0" to="365110754#2"/>
    <trip id="veh125" type="veh_passenger" depart="118.54" departLane="best" departSpeed="max" from="-1171580815" to="1032553467#6"/>
    <trip id="veh126" type="veh_passenger" depart="119.48" departLane="best" departSpeed="max" from="-1171580815" to="-33490201"/>
    <trip id="veh127" type="veh_passenger" depart="120.43" departLane="best" from="-382884322#3" to="786074812"/>
    <trip id="veh129" type="veh_passenger" depart="122.33" departLane="best" from="69407785#1" to="33488726#11"/>
    <trip id="veh130" type="veh_passenger" depart="123.28" departLane="best" departSpeed="max" from="149965949" to="942720854#4"/>
    <trip id="veh131" type="veh_passenger" depart="124.23" departLane="best" departSpeed="max" from="315875664" to="-1014320627#2"/>
    <trip id="veh132" type="veh_passenger" depart="125.17" departLane="best" from="319527644#7" to="786420620#12"/>
    <trip id="veh133" type="veh_passenger" depart="126.12" departLane="best" from="-1268351626" to="-1217557918#6"/>
    <trip id="veh134" type="veh_passenger" depart="127.07" departLane="best" from="-1171587337#0" to="1171581215"/>
    <trip id="veh135" type="veh_passenger" depart="128.02" departLane="best" from="-39753050#2" to="1214735341#0"/>
    <trip id="veh136" type="veh_passenger" depart="128.97" departLane="best" from="33831834#7" to="-33489194#2"/>
    <trip id="veh137" type="veh_passenger" depart="129.92" departLane="best" from="262473505#9" to="-382884325#0"/>
    <trip id="veh138" type="veh_passenger" depart="130.86" departLane="best" from="107457116#1" to="69423990"/>
    <trip id="veh139" type="veh_passenger" depart="131.81" departLane="best" from="69408943#0" to="-1171586401"/>
    <trip id="veh140" type="veh_passenger" depart="132.76" departLane="best" from="-942717447#1" to="-434983558"/>
    <trip id="veh141" type="veh_passenger" depart="133.71" departLane="best" from="-1036826696#2" to="387421685#1"/>
    <trip id="veh142" type="veh_passenger" depart="134.66" departLane="best" departSpeed="max" from="28868273#0" to="-382884321#1"/>
    <trip id="veh143" type="veh_passenger" depart="135.60" departLane="best" from="34262695#4" to="1171581118"/>
    <trip id="veh144" type="veh_passenger" depart="136.55" departLane="best" from="-942717452#21" to="-1036826697#0"/>
    <trip id="veh145" type="veh_passenger" depart="137.50" departLane="best" departSpeed="max" from="-1171580910" to="69418902#1"/>
    <trip id="veh146" type="veh_passenger" depart="138.45" departLane="best" from="69423988#3" to="1171580888"/>
    <trip id="veh147" type="veh_passenger" depart="139.40" departLane="best" from="69407785#13" to="1171587756#4"/>
    <trip id="veh148" type="veh_passenger" depart="140.35" departLane="best" from="-69407785#11" to="69423983#3"/>
    <trip id="veh149" type="veh_passenger" depart="141.29" departLane="best" from="531712846#1" to="69408954#8"/>
    <trip id="veh150" type="veh_passenger" depart="142.24" departLane="best" from="69423983#2" to="-33489365#0"/>
    <trip id="veh151" type="veh_passenger" depart="143.19" departLane="best" from="-34262607#3" to="-1172571046#0"/>
    <trip id="veh152" type="veh_passenger" depart="144.14" departLane="best" from="435801113#0" to="69418904#4"/>
    <trip id="veh153" type="veh_passenger" depart="145.09" departLane="best" from="-786420620#8" to="1315834745"/>
    <trip id="veh154" type="veh_passenger" depart="146.04" departLane="best" from="-259250254" to="783823520#1"/>
    <trip id="veh155" type="veh_passenger" depart="146.98" departLane="best" from="69408958#7" to="942717452#29"/>
    <trip id="veh156" type="veh_passenger" depart="147.93" departLane="best" departSpeed="max" from="565774362#0" to="69418897#9"/>
    <trip id="veh157" type="veh_passenger" depart="148.88" departLane="best" from="-107457119" to="33832219#0"/>
    <trip id="veh158" type="veh_passenger" depart="149.83" departLane="best" from="-69408954#7" to="783823521#1"/>
    <trip id="veh159" type="veh_passenger" depart="150.78" departLane="best" departSpeed="max" from="559914537#0" to="69408958#3"/>
    <trip id="veh160" type="veh_passenger" depart="151.73" departLane="best" departSpeed="max" from="565774362#0" to="-382886243#0"/>
    <trip id="veh161" type="veh_passenger" depart="152.67" departLane="best" from="466966894#0" to="-1177879776#0"/>
    <trip id="veh162" type="veh_passenger" depart="153.62" departLane="best" from="-33490190#1" to="678015783"/>
    <trip id="veh163" type="veh_passenger" depart="154.57" departLane="best" from="1036826696#0" to="-69407783#0"/>
    <trip id="veh164" type="veh_passenger" depart="155.52" departLane="best" from="531712839#3" to="-33832203#0"/>
    <trip id="veh165" type="veh_passenger" depart="156.47" departLane="best" from="-107457118#6" to="-33488508#0"/>
    <trip id="veh166" type="veh_passenger" depart="157.42" departLane="best" from="-69408952#0" to="69408958#5"/>
    <trip id="veh167" type="veh_passenger" depart="158.36" departLane="best" from="942717449#4" to="-434983562"/>
    <trip id="veh168" type="veh_passenger" depart="159.31" departLane="best" from="291713214#2" to="-69467373#0"/>
    <trip id="veh169" type="veh_passenger" depart="160.26" departLane="best" from="942717452#5" to="1171254421"/>
    <trip id="veh170" type="veh_passenger" depart="161.21" departLane="best" from="786074813#1" to="-1217557918#6"/>
    <trip id="veh171" type="veh_passenger" depart="162.16" departLane="best" from="942717452#12" to="-33487455#16"/>
    <trip id="veh172" type="veh_passenger" depart="163.11" departLane="best" from="903161321#2" to="-382886233#0"/>
    <trip id="veh173" type="veh_passenger" depart="164.05" departLane="best" departSpeed="max" from="-1171587425" to="-942717452#40"/>
    <trip id="veh174" type="veh_passenger" depart="165.00" departLane="best" from="33832219#5" to="-69408930"/>
    <trip id="veh175" type="veh_passenger" depart="165.95" departLane="best" from="149963542#8" to="1134951855#0"/>
    <trip id="veh176" type="veh_passenger" depart="166.90" departLane="best" departSpeed="max" from="-69464835" to="1171587337#1"/>
    <trip id="veh177" type="veh_passenger" depart="167.85" departLane="best" from="-365118846#2" to="33489337#11"/>
    <trip id="veh178" type="veh_passenger" depart="168.79" departLane="best" from="-1013948620#6" to="69467406#2"/>
    <trip id="veh179" type="veh_passenger" depart="169.74" departLane="best" from="1171570457" to="33831832#10"/>
    <trip id="veh180" type="veh_passenger" depart="170.69" departLane="best" from="353186723" to="315875673#1"/>
    <trip id="veh181" type="veh_passenger" depart="171.64" departLane="best" from="-69423971#1" to="-1171572979"/>
    <trip id="veh182" type="veh_passenger" depart="172.59" departLane="best" from="319528824#0" to="-69408954#12"/>
    <trip id="veh183" type="veh_passenger" depart="173.54" departLane="best" from="33832159" to="-69407775#0"/>
    <trip id="veh184" type="veh_passenger" depart="174.48" departLane="best" from="-69407785#5" to="-784676882#0"/>
    <trip id="veh185" type="veh_passenger" depart="175.43" departLane="best" from="-784676882#1" to="-69407761#7"/>
    <trip id="veh186" type="veh_passenger" depart="176.38" departLane="best" from="-1207962906" to="-903161319#9"/>
    <trip id="veh187" type="veh_passenger" depart="177.33" departLane="best" from="786074813#4" to="319527644#10"/>
    <trip id="veh188" type="veh_passenger" depart="178.28" departLane="best" from="69423986#8" to="1274586344#2"/>
    <trip id="veh189" type="veh_passenger" depart="179.23" departLane="best" from="-69407774" to="1171580989"/>
    <trip id="veh191" type="veh_passenger" depart="181.12" departLane="best" from="-942717452#27" to="1171587642"/>
    <trip id="veh192" type="veh_passenger" depart="182.07" departLane="best" from="315875673#1" to="1060150652#0"/>
    <trip id="veh193" type="veh_passenger" depart="183.02" departLane="best" from="107454372#2" to="69423986#0"/>
    <trip id="veh194" type="veh_passenger" depart="183.97" departLane="best" from="531712846#0" to="-315888540"/>
    <trip id="veh195" type="veh_passenger" depart="184.92" departLane="best" from="-1171581370" to="1156812377#4"/>
    <trip id="veh196" type="veh_passenger" depart="185.86" departLane="best" from="262473505#1" to="-69408958#4"/>
    <trip id="veh197" type="veh_passenger" depart="186.81" departLane="best" departSpeed="max" from="69407757#0" to="365110753#1"/>
    <trip id="veh198" type="veh_passenger" depart="187.76" departLane="best" departSpeed="max" from="33487552#0" to="-33832183#2"/>
    <trip id="veh199" type="veh_passenger" depart="188.71" departLane="best" from="-33487552#6" to="-107457102"/>
    <trip id="veh200" type="veh_passenger" depart="189.66" departLane="best" departSpeed="max" from="-33832230" to="107454387#6"/>
    <trip id="veh201" type="veh_passenger" depart="190.61" departLane="best" from="69408948#4" to="-1171580844"/>
    <trip id="veh202" type="veh_passenger" depart="191.55" departLane="best" departSpeed="max" from="-903161314#6" to="149965955#1"/>
    <trip id="veh203" type="veh_passenger" depart="192.50" departLane="best" from="-33487455#3" to="33488387#3"/>
    <trip id="veh204" type="veh_passenger" depart="193.45" departLane="best" from="107457120#1" to="-34262695#6"/>
    <trip id="veh205" type="veh_passenger" depart="194.40" departLane="best" from="315875677#3" to="-1014320624"/>
    <trip id="veh206" type="veh_passenger" depart="195.35" departLane="best" from="365110758#7" to="387421683#5"/>
    <trip id="veh207" type="veh_passenger" depart="196.30" departLane="best" departSpeed="max" from="-1171587311#1" to="-942717452#10"/>
    <trip id="veh208" type="veh_passenger" depart="197.24" departLane="best" from="-315875643" to="903161317#1"/>
    <trip id="veh209" type="veh_passenger" depart="198.19" departLane="best" from="-34262607#2" to="69408947#2"/>
    <trip id="veh210" type="veh_passenger" depart="199.14" departLane="best" departSpeed="max" from="1014513925" to="559914537#2"/>
    <trip id="veh211" type="veh_passenger" depart="200.09" departLane="best" from="325448086#0" to="95457146#2"/>
    <trip id="veh212" type="veh_passenger" depart="201.04" departLane="best" from="1268355861#0" to="900307856#1"/>
    <trip id="veh213" type="veh_passenger" depart="201.98" departLane="best" from="69423969#0" to="1268352115"/>
    <trip id="veh214" type="veh_passenger" depart="202.93" departLane="best" from="33832142#4" to="1093789231#3"/>
    <trip id="veh215" type="veh_passenger" depart="203.88" departLane="best" from="69407782#1" to="1171580978#1"/>
    <trip id="veh216" type="veh_passenger" depart="204.83" departLane="best" from="69423981#2" to="33832270#5"/>
    <trip id="veh217" type="veh_passenger" depart="205.78" departLane="best" departSpeed="max" from="107454378#0" to="-382884319#1"/>
    <trip id="veh218" type="veh_passenger" depart="206.73" departLane="best" from="-33832265#2" to="257722049#4"/>
    <trip id="veh219" type="veh_passenger" depart="207.67" departLane="best" from="382886243#1" to="1157296686"/>
    <trip id="veh220" type="veh_passenger" depart="208.62" departLane="best" from="259250251#1" to="-41214254#0"/>
    <trip id="veh222" type="veh_passenger" depart="210.52" departLane="best" from="-387421686#1" to="-69408943#1"/>
    <trip id="veh223" type="veh_passenger" depart="211.47" departLane="best" from="1171573043" to="-259250251#6"/>
    <trip id="veh224" type="veh_passenger" depart="212.42" departLane="best" from="-33831834#17" to="33488060#7"/>
    <trip id="veh225" type="veh_passenger" depart="213.36" departLane="best" from="33490271#0" to="-1158311146"/>
    <trip id="veh226" type="veh_passenger" depart="214.31" departLane="best" departSpeed="max" from="-828995314#2" to="1171580762#1"/>
    <trip id="veh227" type="veh_passenger" depart="215.26" departLane="best" departSpeed="max" from="-903161317#1" to="-33489220#0"/>
    <trip id="veh228" type="veh_passenger" depart="216.21" departLane="best" departSpeed="max" from="-903161320#1" to="69423989#3"/>
    <trip id="veh229" type="veh_passenger" depart="217.16" departLane="best" from="1178013438" to="33488259#7"/>
    <trip id="veh230" type="veh_passenger" depart="218.11" departLane="best" from="69408952#2" to="382884324#0"/>
    <trip id="veh231" type="veh_passenger" depart="219.05" departLane="best" from="-69423997#6" to="-1014320625#0"/>
    <trip id="veh232" type="veh_passenger" depart="220.00" departLane="best" from="-69418897#2" to="365110758#5"/>
    <trip id="veh233" type="veh_passenger" depart="220.95" departLane="best" from="69408950#7" to="903161312#1"/>
    <trip id="veh234" type="veh_passenger" depart="221.90" departLane="best" from="-903161319#6" to="34262695#6"/>
    <trip id="veh235" type="veh_passenger" depart="222.85" departLane="best" from="1171581168" to="121145946#2"/>
    <trip id="veh236" type="veh_passenger" depart="223.80" departLane="best" from="-33489365#3" to="-33831832#9"/>
    <trip id="veh237" type="veh_passenger" depart="224.74" departLane="best" from="-942717452#46" to="-107457107#1"/>
    <trip id="veh238" type="veh_passenger" depart="225.69" departLane="best" from="-69408958#5" to="319528824#0"/>
    <trip id="veh239" type="veh_passenger" depart="226.64" departLane="best" from="-786420620#0" to="-315875685#1"/>
    <trip id="veh240" type="veh_passenger" depart="227.59" departLane="best" from="1060150654#0" to="-149965940"/>
    <trip id="veh241" type="veh_passenger" depart="228.54" departLane="best" from="257722049#0-AddedOffRampEdge" to="-107457105#2"/>
    <trip id="veh242" type="veh_passenger" depart="229.49" departLane="best" from="-69467383" to="1171585988"/>
    <trip id="veh243" type="veh_passenger" depart="230.43" departLane="best" from="-107460087#3" to="25989376"/>
    <trip id="veh244" type="veh_passenger" depart="231.38" departLane="best" departSpeed="max" from="-1268352996" to="1036826699#2"/>
    <trip id="veh245" type="veh_passenger" depart="232.33" departLane="best" departSpeed="max" from="-1157296686" to="-69423997#3"/>
    <trip id="veh246" type="veh_passenger" depart="233.28" departLane="best" from="-33488724#7" to="-69408951#7"/>
    <trip id="veh247" type="veh_passenger" depart="234.23" departLane="best" from="382884321#3" to="-69423997#3"/>