<?xml version="1.0" encoding="UTF-8"?>

<!-- generated on 2025-03-26 01:24:18 by Eclipse SUMO polyconvert Version 1.22.0
<polyconvertConfiguration xmlns:xsi="http://www.w3.org/2001/XMLSchema-instance" xsi:noNamespaceSchemaLocation="http://sumo.dlr.de/xsd/polyconvertConfiguration.xsd">

    <input>
        <net-file value="osm.net.xml"/>
        <osm-files value="osm_bbox.osm.xml"/>
        <osm.keep-full-type value="true"/>
        <type-file value="C:\Program%20Files%20(x86)\Eclipse\Sumo\data\typemap\osmPolyconvert.typ.xml"/>
    </input>

    <output>
        <output-file value="osm.poly.xml"/>
    </output>

    <report>
        <verbose value="true"/>
    </report>

</polyconvertConfiguration>
-->

<additional xmlns:xsi="http://www.w3.org/2001/XMLSchema-instance" xsi:noNamespaceSchemaLocation="http://sumo.dlr.de/xsd/additional_file.xsd">
    <location netOffset="-520659.53,-4069417.50" convBoundary="-58.70,-3787.79,8295.51,3858.70" origBoundary="3.230868,36.736143,3.324520,36.805084" projParameter="+proj=utm +zone=31 +ellps=WGS84 +datum=WGS84 +units=m +no_defs"/>

    <poly id="1023914683" type="building.yes" color="255,230,230" fill="1" layer="-1.00" shape="1053.857650,951.432598 1065.004978,950.640067 1064.433947,936.583769 1052.814876,936.898101 1053.857650,951.432598"/>
    <poly id="1052051485" type="natural.grassland" color="140,196,107" fill="1" layer="-4.00" shape="1729.911963,1380.082268 1810.406951,1369.500218 1812.118658,1370.070467 1811.088350,1371.654058 1730.816424,1382.247780 1727.963196,1381.441600 1729.911963,1380.082268"/>
    <poly id="1052051486" type="natural.grassland" color="140,196,107" fill="1" layer="-4.00" shape="1836.940716,1367.296019 1837.871036,1366.411028 1841.021813,1366.042168 1882.553221,1361.170950 1886.551620,1360.826530 1886.859997,1362.313810 1885.369227,1362.553920 1841.151769,1367.517883 1838.099290,1367.831537 1836.940716,1367.296019"/>
    <poly id="1052051489" type="amenity.parking" color="184,184,179" fill="1" layer="-1.00" shape="1886.861012,1432.887650 1885.603830,1432.529354 1877.401815,1433.239839 1875.839574,1413.234987 1880.497888,1413.025423 1885.486846,1412.628154 1886.861012,1432.887650"/>
    <poly id="1052051490" type="amenity.parking" color="184,184,179" fill="1" layer="-1.00" shape="1873.440096,1392.651089 1874.276448,1407.085325 1879.916749,1406.700864 1879.624467,1392.356808 1873.440096,1392.651089"/>
    <poly id="1052051491" type="natural.grassland" color="140,196,107" fill="1" layer="-4.00" shape="1900.634458,1359.920823 1902.603313,1361.101886 1914.403003,1359.768633 1915.790043,1358.263649 1913.820133,1357.481929 1902.216744,1358.815701 1900.634458,1359.920823"/>
    <poly id="1052051492" type="natural.grassland" color="140,196,107" fill="1" layer="-4.00" shape="1933.838271,1356.004039 1934.175844,1356.570677 1934.307985,1357.214422 1934.217024,1357.868670 1933.921042,1358.444724 1933.438001,1358.898260 1932.839433,1359.174002 1932.178991,1359.227719 1931.563721,1359.070789 1931.029227,1358.736584 1930.637910,1358.247456 1930.416422,1357.647846 1930.400250,1357.015501 1930.580293,1356.416954 1930.956434,1355.896577 1931.466009,1355.531855 1932.073266,1355.344880 1932.706763,1355.357650 1933.330751,1355.592254 1933.838271,1356.004039"/>
    <poly id="1052051493" type="natural.grassland" color="140,196,107" fill="1" layer="-4.00" shape="1937.560868,1382.326551 1936.074268,1384.363733 1943.442985,1445.650030 1945.611847,1445.422819 1937.560868,1382.326551"/>
    <poly id="1052051495" type="amenity.parking" color="184,184,179" fill="1" layer="-1.00" shape="1935.178075,1385.836734 1927.350127,1386.792209 1934.512037,1445.326879 1942.348826,1444.382528 1935.178075,1385.836734"/>
    <poly id="1052051496" type="natural.grassland" color="140,196,107" fill="1" layer="-4.00" shape="1952.385898,1353.856721 1954.345825,1355.037772 1966.154454,1353.704615 1967.532581,1352.199615 1965.562675,1351.417883 1953.959269,1352.751585 1952.385898,1353.856721"/>
    <poly id="1052051497" type="natural.grassland" color="140,196,107" fill="1" layer="-4.00" shape="1988.901428,1349.471922 1990.861350,1350.652982 2002.669992,1349.319875 2004.048126,1347.814881 2002.078222,1347.033141 1990.474804,1348.366793 1988.901428,1349.471922"/>
    <poly id="1052051498" type="natural.grassland" color="140,196,107" fill="1" layer="-4.00" shape="2074.739279,1339.882721 2076.699192,1341.063801 2088.507861,1339.730812 2089.886012,1338.225832 2087.916113,1337.444072 2076.312669,1338.777608 2074.739279,1339.882721"/>
    <poly id="1052051499" type="natural.grassland" color="140,196,107" fill="1" layer="-4.00" shape="2007.761033,1347.458668 2009.729876,1348.639756 2021.529630,1347.295558 2022.907739,1345.801660 2020.946788,1345.008846 2009.334412,1346.353542 2007.761033,1347.458668"/>
    <poly id="1052051500" type="natural.grassland" color="140,196,107" fill="1" layer="-4.00" shape="2044.971222,1343.597325 2046.931138,1344.778398 2058.739827,1343.434275 2060.117942,1341.940384 2058.156994,1341.147561 2046.544607,1342.492207 2044.971222,1343.597325"/>
    <poly id="1052051501" type="natural.grassland" color="140,196,107" fill="1" layer="-4.00" shape="2026.969113,1345.268892 2028.937954,1346.449985 2040.737685,1345.116906 2042.115827,1343.611919 2040.154848,1342.830193 2028.551418,1344.163794 2026.969113,1345.268892"/>
    <poly id="1087953536" type="landuse.recreation_ground" color="194,194,130" fill="1" layer="-3.00" shape="1869.770626,1636.920993 1871.053584,1651.167830 1893.713611,1649.131079 1892.430661,1634.895331 1886.808034,1635.401853 1869.770626,1636.920993"/>
    <poly id="1087953536#1" type="leisure.playground" color="207,245,201" fill="1" layer="-2.00" shape="1869.770626,1636.920993 1871.053584,1651.167830 1893.713611,1649.131079 1892.430661,1634.895331 1886.808034,1635.401853 1869.770626,1636.920993"/>
    <poly id="1087953537" type="landuse.recreation_ground" color="194,194,130" fill="1" layer="-3.00" shape="1932.788233,1628.046704 1934.322474,1645.078567 1961.471666,1642.654529 1959.937478,1625.622660 1932.788233,1628.046704"/>
    <poly id="1087953537#1" type="leisure.playground" color="207,245,201" fill="1" layer="-2.00" shape="1932.788233,1628.046704 1934.322474,1645.078567 1961.471666,1642.654529 1959.937478,1625.622660 1932.788233,1628.046704"/>
    <poly id="1087953541" type="leisure.garden" color="207,245,201" fill="1" layer="-2.00" shape="1859.356544,1600.208865 1864.765252,1653.735913 1967.438777,1643.469040 1962.039657,1589.930856 1900.608259,1596.080236 1859.356544,1600.208865"/>
    <poly id="1087964589" type="building.yes" color="255,230,230" fill="1" layer="-1.00" shape="2241.016692,951.571984 2241.093282,956.286724 2248.946200,956.163578 2248.701334,940.998759 2245.078277,941.055598 2245.024829,937.694269 2239.179766,937.778430 2239.410432,951.589862 2241.016692,951.571984"/>
    <poly id="1087964590" type="building.yes" color="255,230,230" fill="1" layer="-1.00" shape="2302.790892,932.591316 2302.675178,925.846447 2279.544659,926.216908 2279.720901,937.010892 2296.702874,936.745924 2296.795192,942.237219 2303.675450,942.122602 2303.522637,932.582191 2302.790892,932.591316"/>
    <poly id="1087964591" type="building.yes" color="255,230,230" fill="1" layer="-1.00" shape="2219.389386,997.073056 2226.100026,996.969015 2225.924342,985.942079 2196.806160,986.407648 2196.990805,997.434607 2199.873175,997.386858 2200.087955,1010.488293 2219.604137,1010.174492 2219.389386,997.073056"/>
    <poly id="1087964592" type="building.yes" color="255,230,230" fill="1" layer="-1.00" shape="2208.104872,925.781251 2208.272579,936.464280 2218.722358,936.292597 2236.293300,936.017993 2236.109894,924.547316 2219.208210,924.812620 2219.063245,915.638302 2210.398204,915.781487 2210.558916,925.743451 2208.104872,925.781251"/>
    <poly id="1087964593" type="building.house" color="255,230,230" fill="1" layer="-1.00" shape="2090.209230,1156.633851 2090.401008,1168.381876 2100.654163,1168.220619 2100.768730,1175.453577 2105.712365,1175.378011 2105.597801,1168.145054 2113.629014,1168.011167 2113.446190,1156.263166 2090.209230,1156.633851"/>
    <poly id="1087964594" type="building.house" color="255,230,230" fill="1" layer="-1.00" shape="2155.628825,1065.069087 2155.766887,1073.511248 2162.870087,1073.408207 2162.732062,1064.954953 2162.609955,1057.222789 2152.106786,1057.394398 2152.045861,1053.478398 2145.290621,1053.593470 2145.451582,1063.488877 2150.645162,1063.402912 2150.667280,1065.144576 2155.628825,1065.069087"/>
    <poly id="1087964595" type="building.yes" color="255,230,230" fill="1" layer="-1.00" shape="2112.106214,1066.483747 2112.251349,1075.635878 2117.230735,1075.560415 2121.987040,1075.484359 2121.910298,1070.802898 2117.153990,1070.878954 2117.085605,1066.408283 2112.106214,1066.483747"/>
    <poly id="1087964596" type="building.yes" color="255,230,230" fill="1" layer="-1.00" shape="2135.384719,1097.439930 2143.380276,1097.317069 2143.234138,1088.553190 2127.242978,1088.810012 2127.389132,1097.573891 2132.172195,1097.497913 2132.257411,1102.345792 2135.469903,1102.298902 2135.384719,1097.439930"/>
    <poly id="1087964597" type="building.house" color="255,230,230" fill="1" layer="-1.00" shape="2085.897009,1113.958591 2086.210762,1133.516429 2093.144401,1133.401785 2101.113154,1133.278814 2100.944077,1123.061688 2092.975315,1123.184659 2092.821710,1113.855017 2085.897009,1113.958591"/>
    <poly id="1087964598" type="building.house" color="255,230,230" fill="1" layer="-1.00" shape="2156.492729,1025.613511 2156.553889,1029.440767 2171.715269,1029.192873 2171.890755,1040.319645 2162.895681,1040.461994 2162.734947,1030.488936 2154.569756,1030.622419 2154.730529,1040.584384 2158.630164,1040.528246 2158.714328,1045.764378 2173.536566,1045.526674 2173.452411,1040.290542 2176.290151,1040.242665 2176.114641,1029.126986 2176.053490,1025.299729 2156.492729,1025.613511"/>
    <poly id="1087964599" type="building.house" color="255,230,230" fill="1" layer="-1.00" shape="2107.494001,1045.982634 2117.265448,1045.820111 2116.998406,1028.847074 2107.218016,1029.009573 2107.364193,1037.773451 2089.927285,1038.059768 2089.819471,1031.636621 2080.342506,1031.788866 2080.464805,1039.476657 2089.227873,1039.333603 2089.343251,1046.267049 2107.494001,1045.982634"/>
    <poly id="1087964600" type="building.house" color="255,230,230" fill="1" layer="-1.00" shape="2080.058842,1014.327693 2080.288255,1028.704861 2087.105976,1028.589904 2087.114013,1028.922716 2092.450385,1028.837096 2092.565642,1035.814914 2105.023116,1035.615163 2104.908017,1028.581879 2095.573849,1028.723396 2095.443999,1020.525306 2090.179008,1020.611114 2090.080147,1014.176898 2080.058842,1014.327693"/>
    <poly id="1087964601" type="building.yes" color="255,230,230" fill="1" layer="-1.00" shape="2159.993695,971.056287 2159.710132,953.617298 2151.303937,953.750140 2151.388403,958.875342 2144.829432,958.979847 2144.913428,964.282536 2151.472395,964.178031 2151.587517,971.189129 2159.993695,971.056287"/>
    <poly id="1087964602" type="building.yes" color="255,230,230" fill="1" layer="-1.00" shape="2129.390476,959.537653 2129.688987,978.085983 2136.212250,977.981371 2136.342950,985.846673 2153.726397,985.571400 2153.550353,974.644302 2140.298584,974.852956 2140.045462,959.366421 2129.390476,959.537653"/>
    <poly id="1087964603" type="building.yes" color="255,230,230" fill="1" layer="-1.00" shape="2112.097568,979.381309 2112.220314,986.891612 2105.857677,986.996670 2105.950117,992.487962 2112.312750,992.382905 2112.373368,996.420926 2124.982596,996.221608 2124.706821,979.181990 2112.097568,979.381309"/>
    <poly id="1087964604" type="building.yes" color="255,230,230" fill="1" layer="-1.00" shape="2117.673506,973.128623 2126.356333,972.985392 2126.157805,960.438655 2104.847837,960.781167 2105.055320,973.327928 2106.179717,973.308739 2106.240664,977.224739 2117.743370,977.044646 2117.673506,973.128623"/>
    <poly id="1087964605" type="building.house" color="255,230,230" fill="1" layer="-1.00" shape="2073.742360,956.882301 2073.950037,969.373596 2079.518482,969.277492 2079.649205,977.153886 2073.456104,977.259419 2073.761620,996.573184 2080.579367,996.458221 2080.296500,978.697539 2085.472284,978.611487 2085.318933,969.182010 2085.120167,956.701831 2073.742360,956.882301"/>
    <poly id="1087964606" type="building.yes" color="255,230,230" fill="1" layer="-1.00" shape="2256.188426,877.688784 2256.257217,881.981968 2262.521777,881.876758 2262.452990,877.583574 2256.188426,877.688784"/>
    <poly id="1087964607" type="building.yes" color="255,230,230" fill="1" layer="-1.00" shape="2245.676987,927.434973 2245.852617,938.473001 2262.754275,938.207750 2262.578696,927.158628 2245.676987,927.434973"/>
    <poly id="1087964608" type="building.yes" color="255,230,230" fill="1" layer="-1.00" shape="2256.853916,952.246773 2256.709469,942.894967 2253.773539,942.942554 2253.917990,952.294360 2256.853916,952.246773"/>
    <poly id="1087964609" type="building.yes" color="255,230,230" fill="1" layer="-1.00" shape="2259.396527,942.480644 2259.534222,951.022641 2270.385535,950.852098 2270.247851,942.310101 2259.396527,942.480644"/>
    <poly id="1087964610" type="building.house" color="255,230,230" fill="1" layer="-1.00" shape="2325.427574,993.020453 2325.357864,989.082241 2336.164515,988.911662 2336.324749,998.995653 2352.467782,998.739630 2352.253743,985.449610 2339.028753,985.658027 2338.990411,983.328389 2334.635630,983.394312 2334.497653,974.985428 2328.839974,975.081125 2328.969034,983.489985 2325.274607,983.546598 2325.227846,981.028356 2317.267869,981.151143 2317.527413,997.447494 2322.872732,997.362042 2322.926387,1000.634628 2332.956667,1000.473049 2332.834295,992.896183 2325.427574,993.020453"/>
    <poly id="1087964611" type="building.yes" color="255,230,230" fill="1" layer="-1.00" shape="2303.442809,985.495698 2303.572401,993.715978 2316.226256,993.517062 2316.087753,985.296759 2303.442809,985.495698"/>
    <poly id="1087964612" type="building.yes" color="255,230,230" fill="1" layer="-1.00" shape="2301.908793,975.241619 2302.046504,983.761432 2311.461066,983.609264 2311.323334,975.100545 2301.908793,975.241619"/>
    <poly id="1087964613" type="building.yes" color="255,230,230" fill="1" layer="-1.00" shape="2284.584644,983.326239 2284.615181,985.245414 2284.769355,994.286643 2289.463245,994.210513 2289.516704,997.560750 2299.341752,997.398579 2299.242242,991.263869 2292.362054,991.367397 2292.262838,985.121757 2299.134137,985.007113 2298.958458,974.013454 2284.439483,974.251756 2284.584644,983.326239"/>
    <poly id="1087964614" type="building.yes" color="255,230,230" fill="1" layer="-1.00" shape="2279.810377,960.173365 2279.979214,970.401586 2291.749665,970.211354 2291.589765,959.983157 2279.810377,960.173365"/>
    <poly id="1087964615" type="building.yes" color="255,230,230" fill="1" layer="-1.00" shape="2263.826202,987.652232 2264.001837,998.679169 2273.362842,998.526816 2273.187189,987.510971 2263.826202,987.652232"/>
    <poly id="1087964616" type="building.yes" color="255,230,230" fill="1" layer="-1.00" shape="2260.519337,969.650471 2260.687334,980.200387 2270.182208,980.048390 2270.014223,969.498473 2260.519337,969.650471"/>
    <poly id="1087964617" type="building.yes" color="255,230,230" fill="1" layer="-1.00" shape="2264.736684,957.625862 2264.882612,966.423021 2275.965942,966.242015 2275.828919,957.455973 2264.736684,957.625862"/>
    <poly id="1087964618" type="building.yes" color="255,230,230" fill="1" layer="-1.00" shape="2228.398448,988.400269 2228.574010,999.471577 2241.174315,999.272406 2240.989876,988.189981 2228.398448,988.400269"/>
    <poly id="1087964619" type="building.yes" color="255,230,230" fill="1" layer="-1.00" shape="2178.328341,975.475954 2178.412732,980.623342 2184.257794,980.528046 2184.173407,975.380658 2191.633651,975.267503 2191.734366,980.980679 2195.750031,980.924868 2195.596030,971.783805 2195.402934,960.579335 2178.090821,960.854715 2178.273711,972.547250 2178.328341,975.475954"/>
    <poly id="1087964620" type="building.yes" color="255,230,230" fill="1" layer="-1.00" shape="2196.755538,961.980676 2196.939561,973.240587 2206.416594,973.088471 2206.232585,961.828560 2196.755538,961.980676"/>
    <poly id="1087964621" type="building.yes" color="255,230,230" fill="1" layer="-1.00" shape="2223.167234,975.873318 2223.289288,983.605483 2235.711149,983.405826 2235.557518,974.142740 2223.144567,974.342421 2222.914797,960.187108 2212.554310,960.347932 2212.806766,976.034143 2223.167234,975.873318"/>
    <poly id="1087964622" type="building.yes" color="255,230,230" fill="1" layer="-1.00" shape="2224.053619,958.115764 2224.221572,968.698958 2235.867067,968.519407 2235.699128,957.936213 2224.053619,958.115764"/>
    <poly id="1087964623" type="building.yes" color="255,230,230" fill="1" layer="-1.00" shape="2223.252489,944.058758 2223.390339,952.556382 2232.207010,952.424711 2232.069199,943.915993 2223.252489,944.058758"/>
    <poly id="1087964624" type="building.house" color="255,230,230" fill="1" layer="-1.00" shape="2176.713437,938.687173 2177.012202,957.102389 2206.219716,956.636991 2205.929938,938.221798 2176.713437,938.687173"/>
    <poly id="1087964625" type="building.yes" color="255,230,230" fill="1" layer="-1.00" shape="2186.544109,933.111492 2186.176657,910.358721 2173.433449,910.557592 2173.800905,933.321455 2186.544109,933.111492"/>
    <poly id="1087964626" type="building.yes" color="255,230,230" fill="1" layer="-1.00" shape="2199.508080,887.099053 2199.783057,904.382717 2218.969316,904.068029 2218.685424,886.795434 2202.970538,887.041764 2199.508080,887.099053"/>
    <poly id="1087964627" type="building.yes" color="255,230,230" fill="1" layer="-1.00" shape="2185.139294,887.848206 2185.392308,903.345833 2198.626373,903.126109 2198.373382,887.628481 2185.139294,887.848206"/>
    <poly id="1087964628" type="building.yes" color="255,230,230" fill="1" layer="-1.00" shape="2172.420213,889.023328 2172.635069,902.113668 2184.476998,901.923478 2184.262159,888.833138 2172.420213,889.023328"/>
    <poly id="1087964629" type="building.house" color="255,230,230" fill="1" layer="-1.00" shape="2080.700031,1041.618236 2080.815446,1048.540590 2087.740230,1048.425918 2087.633715,1041.514681 2080.700031,1041.618236"/>
    <poly id="1087964630" type="building.yes" color="255,230,230" fill="1" layer="-1.00" shape="2101.335476,1023.092403 2101.396187,1027.097146 2112.211707,1026.926307 2112.151029,1022.910471 2101.335476,1023.092403"/>
    <poly id="1087964632" type="building.yes" color="255,230,230" fill="1" layer="-1.00" shape="2100.054271,1185.723814 2100.261427,1198.392601 2114.985215,1198.165628 2114.778080,1185.496840 2100.054271,1185.723814"/>
    <poly id="1087964633" type="building.house" color="255,230,230" fill="1" layer="-1.00" shape="2116.380218,1170.281483 2116.602593,1183.926497 2126.150775,1183.774483 2125.937339,1170.129492 2116.380218,1170.281483"/>
    <poly id="1087964634" type="building.yes" color="255,230,230" fill="1" layer="-1.00" shape="2113.434154,1150.738808 2113.679517,1165.803790 2129.197577,1165.556774 2128.952242,1150.491791 2113.434154,1150.738808"/>
    <poly id="1087964635" type="building.house" color="255,230,230" fill="1" layer="-1.00" shape="2096.608527,1136.028971 2096.822839,1149.363358 2115.116170,1149.068247 2114.901857,1135.744952 2096.608527,1136.028971"/>
    <poly id="1087964636" type="building.house" color="255,230,230" fill="1" layer="-1.00" shape="2184.692433,1041.540837 2185.175120,1071.249247 2193.474121,1071.116152 2192.991463,1041.407741 2184.692433,1041.540837"/>
    <poly id="1087964637" type="building.yes" color="255,230,230" fill="1" layer="-1.00" shape="2175.586894,1046.286482 2176.000517,1071.801544 2183.540985,1071.688596 2183.127414,1046.162442 2175.586894,1046.286482"/>
    <poly id="1087964638" type="building.yes" color="255,230,230" fill="1" layer="-1.00" shape="2165.261782,1059.958761 2165.329785,1064.562548 2175.538480,1064.390168 2175.461529,1059.797450 2165.261782,1059.958761"/>
    <poly id="1087964639" type="building.house" color="255,230,230" fill="1" layer="-1.00" shape="2126.637205,1065.024953 2126.759551,1072.679465 2130.757356,1072.612483 2130.635013,1064.957971 2141.673595,1064.776672 2141.527692,1055.924050 2126.491315,1056.161237 2126.637205,1065.024953"/>
    <poly id="1087964640" type="building.yes" color="255,230,230" fill="1" layer="-1.00" shape="2109.748780,1053.731576 2109.916605,1064.414605 2120.375149,1064.242826 2120.198383,1053.570866 2109.748780,1053.731576"/>
    <poly id="1087964641" type="building.house" color="255,230,230" fill="1" layer="-1.00" shape="2098.126326,1058.703546 2098.248520,1066.424616 2109.474487,1066.243775 2109.352303,1058.522705 2098.126326,1058.703546"/>
    <poly id="1087964642" type="building.house" color="255,230,230" fill="1" layer="-1.00" shape="2098.789384,1081.113221 2109.551296,1080.942236 2109.353072,1068.273475 2098.582222,1068.444436 2098.789384,1081.113221"/>
    <poly id="1087964643" type="building.house" color="255,230,230" fill="1" layer="-1.00" shape="2108.914486,1095.550051 2108.739364,1084.256886 2097.343880,1084.437275 2097.518988,1095.741533 2108.914486,1095.550051"/>
    <poly id="1087964644" type="building.house" color="255,230,230" fill="1" layer="-1.00" shape="2122.441708,1095.708155 2122.296496,1086.589302 2112.293122,1086.740107 2112.438316,1095.870052 2122.441708,1095.708155"/>
    <poly id="1087964645" type="building.house" color="255,230,230" fill="1" layer="-1.00" shape="2094.432508,1098.728424 2094.179633,1083.119866 2093.751320,1083.118725 2093.498651,1067.432516 2083.022265,1067.604281 2083.274954,1083.290489 2083.527819,1098.910140 2094.432508,1098.728424"/>
    <poly id="1087964646" type="building.house" color="255,230,230" fill="1" layer="-1.00" shape="2081.024258,1053.899076 2081.208606,1065.092428 2094.040812,1064.893658 2093.856510,1053.689214 2081.024258,1053.899076"/>
    <poly id="1087964647" type="building.yes" color="255,230,230" fill="1" layer="-1.00" shape="2153.445499,1047.292230 2153.315201,1039.282719 2132.879936,1039.616404 2133.010253,1047.625915 2153.445499,1047.292230"/>
    <poly id="1087964648" type="building.house" color="255,230,230" fill="1" layer="-1.00" shape="2129.775299,1039.364071 2129.575209,1027.405258 2120.945977,1027.548628 2121.137155,1039.507417 2129.775299,1039.364071"/>
    <poly id="1087964649" type="building.yes" color="255,230,230" fill="1" layer="-1.00" shape="2131.484952,1024.004797 2131.684211,1036.274212 2144.257687,1036.074828 2144.058447,1023.805412 2131.484952,1024.004797"/>
    <poly id="1087964650" type="building.yes" color="255,230,230" fill="1" layer="-1.00" shape="2100.167079,1012.839336 2100.044559,1005.240289 2088.818513,1005.421142 2088.941042,1013.020189 2100.167079,1012.839336"/>
    <poly id="1087964651" type="building.house" color="255,230,230" fill="1" layer="-1.00" shape="2109.727136,1018.344775 2109.603472,1011.178353 2102.437729,1011.292365 2102.561399,1018.458787 2109.727136,1018.344775"/>
    <poly id="1087964652" type="building.house" color="255,230,230" fill="1" layer="-1.00" shape="2128.381202,1016.730583 2135.332753,1016.627114 2135.119117,1003.059777 2128.167525,1003.174339 2118.021518,1003.236013 2118.059979,1005.543465 2112.491557,1005.639543 2112.713561,1019.428762 2118.281974,1019.332684 2118.350358,1023.803355 2128.496608,1023.641845 2128.381202,1016.730583"/>
    <poly id="1087964653" type="building.house" color="255,230,230" fill="1" layer="-1.00" shape="2137.887615,1002.213005 2138.201611,1021.637727 2157.583885,1021.334519 2157.269962,1001.898704 2137.887615,1002.213005"/>
    <poly id="1087964654" type="building.house" color="255,230,230" fill="1" layer="-1.00" shape="2083.117627,988.245051 2094.513238,988.064642 2094.382559,980.177155 2082.986937,980.357565 2083.117627,988.245051"/>
    <poly id="1087964655" type="building.house" color="255,230,230" fill="1" layer="-1.00" shape="2094.940777,998.404478 2094.833261,991.870402 2083.348392,992.061666 2083.447023,998.584625 2094.940777,998.404478"/>
    <poly id="1087964656" type="building.house" color="255,230,230" fill="1" layer="-1.00" shape="2105.021755,985.918418 2098.578808,986.023268 2098.770138,997.937683 2105.213076,997.832834 2105.021755,985.918418"/>
    <poly id="1087964657" type="building.house" color="255,230,230" fill="1" layer="-1.00" shape="2089.493505,976.470153 2101.201478,976.279491 2100.911356,957.908674 2089.194434,958.099312 2089.493505,976.470153"/>
    <poly id="1087964658" type="building.yes" color="255,230,230" fill="1" layer="-1.00" shape="2073.063399,943.768542 2093.588094,943.446044 2093.434633,934.060939 2072.909916,934.383438 2073.063399,943.768542"/>
    <poly id="1087964659" type="building.house" color="255,230,230" fill="1" layer="-1.00" shape="2095.890364,953.480270 2095.767780,945.903410 2072.458862,946.273956 2072.581436,953.861909 2095.890364,953.480270"/>
    <poly id="1087964660" type="building.yes" color="255,230,230" fill="1" layer="-1.00" shape="2104.545553,940.280457 2104.729787,951.507086 2118.998910,951.278905 2118.814695,940.052276 2104.545553,940.280457"/>
    <poly id="1087964661" type="building.house" color="255,230,230" fill="1" layer="-1.00" shape="2106.591557,909.203267 2094.812105,909.393731 2095.050302,923.815293 2108.061218,923.605926 2107.846382,910.471217 2119.108247,910.290483 2118.939274,900.040081 2124.998551,899.945316 2124.914631,894.609349 2118.855350,894.704114 2118.839781,893.849910 2106.346406,894.049547 2106.591557,909.203267"/>
    <poly id="1087964662" type="building.house" color="255,230,230" fill="1" layer="-1.00" shape="2089.542878,911.043645 2089.344205,898.530188 2069.711771,898.843980 2069.910473,911.357436 2089.542878,911.043645"/>
    <poly id="1087964663" type="building.house" color="255,230,230" fill="1" layer="-1.00" shape="2071.542777,931.728567 2090.684321,931.424565 2090.439882,915.993522 2071.289380,916.297500 2071.542777,931.728567"/>
    <poly id="1087964664" type="building.house" color="255,230,230" fill="1" layer="-1.00" shape="2063.455264,899.282143 2063.780415,891.107452 2048.817351,890.512997 2048.434987,900.074164 2059.909314,900.537312 2059.966544,899.150837 2063.455264,899.282143"/>
    <poly id="1087964665" type="amenity.parking" color="184,184,179" fill="1" layer="-1.00" shape="2475.890697,928.088867 2476.280151,916.087269 2453.928870,915.372253 2453.539448,927.373851 2475.890697,928.088867"/>
    <poly id="1087964666" type="natural.grassland" color="140,196,107" fill="1" layer="-4.00" shape="1850.193063,1471.549936 1851.123402,1470.653854 1854.274171,1470.273906 1895.770122,1465.125335 1899.759609,1464.758712 1900.076902,1466.246017 1898.595044,1466.497241 1854.413046,1471.749645 1851.360545,1472.085480 1850.193063,1471.549936"/>
    <poly id="1087964667" type="natural.grassland" color="140,196,107" fill="1" layer="-4.00" shape="2058.046599,1446.353550 2060.015443,1447.523557 2071.815305,1446.090685 2073.175590,1444.585655 2071.214637,1443.803922 2059.611074,1445.237317 2058.046599,1446.353550"/>
    <poly id="1087964668" type="natural.grassland" color="140,196,107" fill="1" layer="-4.00" shape="2040.053273,1448.158228 2042.031071,1449.317161 2053.821945,1447.906427 2055.191180,1446.390325 2053.221273,1445.619665 2041.626668,1447.042015 2040.053273,1448.158228"/>
    <poly id="1087964669" type="natural.grassland" color="140,196,107" fill="1" layer="-4.00" shape="2020.862913,1450.481136 2022.840683,1451.651158 2034.631610,1450.218211 2036.000811,1448.713199 2034.030903,1447.942544 2022.427382,1449.364896 2020.862913,1450.481136"/>
    <poly id="1087964670" type="natural.grassland" color="140,196,107" fill="1" layer="-4.00" shape="2002.020994,1452.638616 2003.989873,1453.797518 2015.789658,1452.386754 2017.158885,1450.870646 2015.180053,1450.099971 2003.585460,1451.522373 2002.020994,1452.638616"/>
    <poly id="1087964671" type="natural.grassland" color="140,196,107" fill="1" layer="-4.00" shape="1965.540884,1457.289683 1967.509767,1458.448575 1979.309539,1457.037762 1980.669835,1455.521624 1978.699924,1454.750982 1967.105344,1456.173433 1965.540884,1457.289683"/>
    <poly id="1087964672" type="natural.grassland" color="140,196,107" fill="1" layer="-4.00" shape="1913.833677,1463.730981 1915.811459,1464.900978 1927.602319,1463.478977 1928.980451,1461.962878 1927.001614,1461.192224 1915.407052,1462.614745 1913.833677,1463.730981"/>
    <poly id="1087964673" type="natural.grassland" color="140,196,107" fill="1" layer="-4.00" shape="1947.010971,1459.570135 1947.348539,1460.136773 1947.489601,1460.780542 1947.398639,1461.434790 1947.111582,1462.010867 1946.628547,1462.464402 1946.029956,1462.751236 1945.369522,1462.804953 1944.754260,1462.648021 1944.219743,1462.324908 1943.828432,1461.835779 1943.598025,1461.236146 1943.581854,1460.603800 1943.752973,1460.005230 1944.129111,1459.484853 1944.629757,1459.120109 1945.237036,1458.922042 1945.870526,1458.934812 1946.494535,1459.158325 1947.010971,1459.570135"/>
    <poly id="1087964683" type="man_made.storage_tank" color="255,230,230" fill="1" layer="-1.00" shape="2669.403486,1640.277761 2671.549927,1641.714629 2673.078948,1643.793206 2673.794918,1646.268910 2673.618385,1648.830919 2672.576905,1651.190890 2670.787291,1653.049630 2668.464291,1654.185865 2665.893824,1654.456168 2663.379316,1653.839181 2661.232848,1652.413408 2659.703825,1650.334833 2658.987851,1647.859130 2659.155487,1645.286003 2660.205887,1642.926055 2661.995471,1641.078406 2664.318473,1639.942169 2666.888975,1639.660773 2669.403486,1640.277761"/>
    <poly id="1087964693" type="amenity.parking" color="184,184,179" fill="1" layer="-1.00" shape="1858.390880,1597.588363 1882.095788,1595.254825 1881.748283,1591.693044 1858.034413,1594.037653 1858.390880,1597.588363"/>