<?xml version="1.0" encoding="UTF-8"?>

<!-- generated on 2025-04-16 17:03:44 by Eclipse SUMO netconvert Version 1.22.0
<netconvertConfiguration xmlns:xsi="http://www.w3.org/2001/XMLSchema-instance" xsi:noNamespaceSchemaLocation="http://sumo.dlr.de/xsd/netconvertConfiguration.xsd">

    <input>
        <type-files value="C:\Program%20Files%20(x86)\Eclipse\Sumo\data\typemap\osmNetconvert.typ.xml"/>
        <osm-files value="osm_bbox.osm.xml"/>
    </input>

    <output>
        <output-file value="osm.net.xml"/>
        <output.street-names value="true"/>
        <output.original-names value="true"/>
    </output>

    <projection>
        <proj.utm value="true"/>
    </projection>

    <processing>
        <geometry.remove value="true"/>
        <roundabouts.guess value="true"/>
    </processing>

    <tls_building>
        <tls.discard-simple value="true"/>
        <tls.join value="true"/>
        <tls.guess-signals value="true"/>
        <tls.default-type value="actuated"/>
    </tls_building>

    <ramp_guessing>
        <ramps.guess value="true"/>
    </ramp_guessing>

    <junctions>
        <junctions.join value="true"/>
        <junctions.corner-detail value="5"/>
    </junctions>

    <report>
        <verbose value="true"/>
    </report>

</netconvertConfiguration>
-->

<net version="1.20" junctionCornerDetail="5" limitTurnSpeed="5.50" xmlns:xsi="http://www.w3.org/2001/XMLSchema-instance" xsi:noNamespaceSchemaLocation="http://sumo.dlr.de/xsd/net_file.xsd">

    <location netOffset="-503500.30,-4064647.38" convBoundary="0.00,0.00,5641.76,6616.22" origBoundary="3.039225,36.727489,5.364165,43.312259" projParameter="+proj=utm +zone=31 +ellps=WGS84 +datum=WGS84 +units=m +no_defs"/>

    <type id="highway.footway" priority="1" numLanes="1" speed="2.78" allow="pedestrian" oneway="1" width="2.00"/>
    <type id="highway.pedestrian" priority="1" numLanes="1" speed="2.78" allow="pedestrian" oneway="1" width="2.00"/>
    <type id="highway.primary" priority="12" numLanes="2" speed="27.78" disallow="tram rail_urban rail rail_electric rail_fast ship container cable_car subway aircraft wheelchair scooter drone" oneway="0"/>
    <type id="highway.primary_link" priority="7" numLanes="1" speed="22.22" disallow="tram rail_urban rail rail_electric rail_fast ship container cable_car subway aircraft wheelchair scooter drone" oneway="0"/>
    <type id="highway.residential" priority="3" numLanes="1" speed="13.89" disallow="tram rail_urban rail rail_electric rail_fast ship container cable_car subway aircraft wheelchair scooter drone" oneway="0"/>
    <type id="highway.secondary" priority="11" numLanes="1" speed="27.78" disallow="tram rail_urban rail rail_electric rail_fast ship container cable_car subway aircraft wheelchair scooter drone" oneway="0"/>
    <type id="highway.service" priority="1" numLanes="1" speed="5.56" allow="pedestrian delivery bicycle" oneway="0"/>
    <type id="highway.steps" priority="1" numLanes="1" speed="1.39" allow="pedestrian" oneway="1" width="2.00"/>
    <type id="highway.tertiary" priority="10" numLanes="1" speed="22.22" disallow="tram rail_urban rail rail_electric rail_fast ship container cable_car subway aircraft wheelchair scooter drone" oneway="0"/>
    <type id="highway.track" priority="1" numLanes="1" speed="5.56" allow="pedestrian motorcycle moped bicycle" oneway="0"/>
    <type id="highway.unclassified" priority="4" numLanes="1" speed="13.89" disallow="tram rail_urban rail rail_electric rail_fast ship container cable_car subway aircraft wheelchair scooter drone" oneway="0"/>
    <type id="railway.rail" priority="20" numLanes="1" speed="44.44" allow="rail" oneway="1"/>
    <type id="railway.subway" priority="18" numLanes="1" speed="27.78" allow="subway" oneway="1"/>

    <edge id=":10187614396_0" function="internal">
        <lane id=":10187614396_0_0" index="0" allow="pedestrian delivery bicycle" speed="3.65" length="4.67" shape="763.99,4389.03 764.27,4387.61 764.86,4386.94 765.75,4387.01 766.95,4387.81"/>
    </edge>
    <edge id=":10187614401_0" function="internal">
        <lane id=":10187614401_0_0" index="0" allow="pedestrian delivery bicycle" speed="3.65" length="4.67" shape="671.81,4461.39 670.49,4461.97 669.60,4461.89 669.14,4461.12 669.10,4459.68"/>
    </edge>
    <edge id=":10241684583_0" function="internal">
        <lane id=":10241684583_0_0" index="0" allow="pedestrian delivery bicycle" speed="5.56" length="10.60" shape="1583.56,4544.08 1580.69,4545.16 1578.56,4545.84 1576.37,4546.31 1573.34,4546.74"/>
    </edge>
    <edge id=":10241684583_1" function="internal">
        <lane id=":10241684583_1_0" index="0" allow="pedestrian delivery bicycle" speed="5.56" length="11.35" shape="1583.56,4544.08 1580.42,4544.79 1578.03,4544.23 1576.38,4542.41 1575.48,4539.32"/>
    </edge>
    <edge id=":10241684583_2" function="internal">
        <lane id=":10241684583_2_0" index="0" allow="pedestrian delivery bicycle" speed="3.65" length="4.67" shape="1583.56,4544.08 1582.15,4543.76 1581.49,4543.16 1581.58,4542.27 1582.42,4541.09"/>
    </edge>
    <edge id=":10241684583_3" function="internal">
        <lane id=":10241684583_3_0" index="0" allow="pedestrian delivery bicycle" speed="4.84" length="5.29" shape="1578.65,4538.87 1579.07,4540.31 1579.84,4541.16 1580.96,4541.42 1582.42,4541.09"/>
    </edge>
    <edge id=":10241684583_4" function="internal">
        <lane id=":10241684583_4_0" index="0" allow="pedestrian delivery bicycle" speed="5.56" length="10.85" shape="1578.65,4538.87 1578.70,4542.01 1577.82,4544.37 1576.04,4545.95 1573.34,4546.74"/>
    </edge>
    <edge id=":10241684583_5" function="internal">
        <lane id=":10241684583_5_0" index="0" allow="pedestrian delivery bicycle" speed="3.65" length="4.67" shape="1578.65,4538.87 1578.03,4540.17 1577.29,4540.68 1576.44,4540.40 1575.48,4539.32"/>
    </edge>
    <edge id=":10241684583_6" function="internal">
        <lane id=":10241684583_6_0" index="0" allow="pedestrian delivery bicycle" speed="5.28" length="5.65" shape="1572.93,4543.57 1574.25,4543.15 1575.12,4542.31 1575.53,4541.03 1575.48,4539.32"/>
    </edge>
    <edge id=":10241684583_7" function="internal">
        <lane id=":10241684583_7_0" index="0" allow="pedestrian delivery bicycle" speed="5.56" length="9.85" shape="1572.93,4543.57 1575.82,4543.16 1577.78,4542.75 1579.69,4542.13 1582.42,4541.09"/>
    </edge>
    <edge id=":10241684583_8" function="internal">
        <lane id=":10241684583_8_0" index="0" allow="pedestrian delivery bicycle" speed="3.65" length="4.67" shape="1572.93,4543.57 1574.22,4544.21 1574.72,4544.95 1574.43,4545.80 1573.34,4546.74"/>
    </edge>
    <edge id=":10241684592_0" function="internal">
        <lane id=":10241684592_0_0" index="0" allow="pedestrian delivery bicycle" speed="4.82" length="5.27" shape="1572.26,4515.91 1571.87,4514.45 1571.12,4513.59 1570.02,4513.31 1568.57,4513.62"/>
    </edge>
    <edge id=":10241684592_1" function="internal">
        <lane id=":10241684592_1_0" index="0" allow="pedestrian delivery bicycle" speed="5.56" length="9.62" shape="1572.26,4515.91 1570.94,4506.38"/>
    </edge>
    <edge id=":10241684592_2" function="internal">
        <lane id=":10241684592_2_0" index="0" allow="pedestrian delivery bicycle" speed="5.56" length="11.28" shape="1572.26,4515.91 1572.32,4512.69 1573.40,4510.46 1575.51,4509.22 1578.64,4508.97"/>
    </edge>
    <edge id=":10241684592_3" function="internal">
        <lane id=":10241684592_3_0" index="0" allow="pedestrian delivery bicycle" speed="3.65" length="4.67" shape="1572.26,4515.91 1572.91,4514.62 1573.65,4514.13 1574.49,4514.43 1575.43,4515.52"/>
    </edge>
    <edge id=":10241684592_4" function="internal">
        <lane id=":10241684592_4_0" index="0" allow="pedestrian delivery bicycle" speed="4.92" length="5.38" shape="1578.42,4512.16 1576.95,4512.29 1575.96,4512.89 1575.46,4513.97 1575.43,4515.52"/>
    </edge>
    <edge id=":10241684592_5" function="internal">
        <lane id=":10241684592_5_0" index="0" allow="pedestrian delivery bicycle" speed="5.56" length="10.10" shape="1578.42,4512.16 1575.44,4512.01 1573.38,4512.12 1571.38,4512.61 1568.57,4513.62"/>
    </edge>
    <edge id=":10241684592_6" function="internal">
        <lane id=":10241684592_6_0" index="0" allow="pedestrian delivery bicycle" speed="5.56" length="10.30" shape="1578.42,4512.16 1575.47,4511.64 1573.24,4510.50 1571.73,4508.75 1570.94,4506.38"/>
    </edge>
    <edge id=":10241684592_7" function="internal">
        <lane id=":10241684592_7_0" index="0" allow="pedestrian delivery bicycle" speed="3.65" length="4.67" shape="1578.42,4512.16 1577.28,4511.28 1576.93,4510.46 1577.39,4509.69 1578.64,4508.97"/>
    </edge>
    <edge id=":10241684592_8" function="internal">
        <lane id=":10241684592_8_0" index="0" allow="pedestrian delivery bicycle" speed="5.56" length="5.96" shape="1574.10,4505.88 1574.56,4507.13 1575.46,4508.06 1576.82,4508.67 1578.64,4508.97"/>
    </edge>
    <edge id=":10241684592_9" function="internal">
        <lane id=":10241684592_9_0" index="0" allow="pedestrian delivery bicycle" speed="5.56" length="9.73" shape="1574.10,4505.88 1575.43,4515.52"/>
    </edge>
    <edge id=":10241684592_10" function="internal">
        <lane id=":10241684592_10_0" index="0" allow="pedestrian delivery bicycle" speed="5.56" length="10.42" shape="1574.10,4505.88 1574.08,4508.38 1573.15,4510.50 1571.31,4512.25 1568.57,4513.62"/>
    </edge>
    <edge id=":10241684592_11" function="internal">
        <lane id=":10241684592_11_0" index="0" allow="pedestrian delivery bicycle" speed="3.65" length="4.67" shape="1574.10,4505.88 1573.50,4507.19 1572.78,4507.71 1571.92,4507.44 1570.94,4506.38"/>
    </edge>
    <edge id=":10241684592_12" function="internal">
        <lane id=":10241684592_12_0" index="0" allow="pedestrian delivery bicycle" speed="5.56" length="6.00" shape="1567.43,4510.63 1569.13,4509.81 1570.29,4508.83 1570.89,4507.69 1570.94,4506.38"/>
    </edge>
    <edge id=":10241684592_13" function="internal">
        <lane id=":10241684592_13_0" index="0" allow="pedestrian delivery bicycle" speed="5.56" length="11.45" shape="1567.43,4510.63 1570.46,4509.59 1572.92,4509.02 1575.44,4508.84 1578.64,4508.97"/>
    </edge>
    <edge id=":10241684592_14" function="internal">
        <lane id=":10241684592_14_0" index="0" allow="pedestrian delivery bicycle" speed="5.56" length="11.39" shape="1567.43,4510.63 1570.59,4509.95 1572.98,4510.54 1574.59,4512.40 1575.43,4515.52"/>
    </edge>
    <edge id=":10241684592_15" function="internal">
        <lane id=":10241684592_15_0" index="0" allow="pedestrian delivery bicycle" speed="3.65" length="4.67" shape="1567.43,4510.63 1568.84,4510.95 1569.49,4511.55 1569.41,4512.44 1568.57,4513.62"/>
    </edge>
    <edge id=":10241775887_0" function="internal">
        <lane id=":10241775887_0_0" index="0" disallow="tram rail_urban rail rail_electric rail_fast ship container cable_car subway aircraft wheelchair scooter drone" speed="11.11" length="9.46" shape="1104.05,5638.42 1095.01,5641.24"/>
        <lane id=":10241775887_0_1" index="1" disallow="tram rail_urban rail rail_electric rail_fast ship container cable_car subway aircraft wheelchair scooter drone" speed="11.11" length="9.46" shape="1103.08,5635.37 1094.08,5638.18"/>
    </edge>
    <edge id=":10241775887_2" function="internal">
        <lane id=":10241775887_2_0" index="0" allow="pedestrian delivery bicycle" speed="6.01" length="7.97" shape="1103.08,5635.37 1100.35,5636.01 1098.28,5635.99 1096.88,5635.31 1096.15,5633.95"/>
    </edge>
    <edge id=":10241775887_3" function="internal">
        <lane id=":10241775887_3_0" index="0" allow="pedestrian delivery bicycle" speed="6.26" length="7.89" shape="1099.26,5633.21 1099.22,5634.71 1098.34,5636.03 1096.63,5637.19 1094.08,5638.18"/>
    </edge>
    <edge id=":10241775887_4" function="internal">
        <lane id=":10241775887_4_0" index="0" allow="pedestrian delivery bicycle" speed="3.65" length="4.67" shape="1099.26,5633.21 1098.76,5634.56 1098.08,5635.14 1097.21,5634.94 1096.15,5633.95"/>
    </edge>
    <edge id=":10241775889_0" function="internal">
        <lane id=":10241775889_0_0" index="0" disallow="tram rail_urban rail rail_electric rail_fast ship container cable_car subway aircraft wheelchair scooter drone" speed="9.72" length="15.50" shape="1154.71,5622.30 1150.67,5624.10 1148.43,5626.26 1146.57,5629.03 1143.67,5632.65"/>
        <lane id=":10241775889_0_1" index="1" disallow="tram rail_urban rail rail_electric rail_fast ship container cable_car subway aircraft wheelchair scooter drone" speed="9.72" length="15.96" shape="1154.71,5622.30 1150.22,5623.77 1147.24,5625.12 1144.65,5627.11 1141.34,5630.45"/>
    </edge>
    <edge id=":10241775889_2" function="internal">
        <lane id=":10241775889_2_0" index="0" disallow="tram rail_urban rail rail_electric rail_fast ship container cable_car subway aircraft wheelchair scooter drone" speed="11.11" length="16.18" shape="1154.71,5622.30 1139.29,5627.19"/>
        <lane id=":10241775889_2_1" index="1" disallow="tram rail_urban rail rail_electric rail_fast ship container cable_car subway aircraft wheelchair scooter drone" speed="11.11" length="16.18" shape="1153.75,5619.25 1138.32,5624.14"/>
    </edge>
    <edge id=":10280110276_0" function="internal">
        <lane id=":10280110276_0_0" index="0" disallow="tram rail_urban rail rail_electric rail_fast ship container cable_car subway aircraft wheelchair scooter drone" speed="13.89" length="13.87" shape="1922.54,5233.32 1921.75,5237.24 1921.30,5239.95 1921.00,5242.68 1920.65,5246.67"/>
        <lane id=":10280110276_0_1" index="1" disallow="tram rail_urban rail rail_electric rail_fast ship container cable_car subway aircraft wheelchair scooter drone" speed="13.89" length="13.87" shape="1919.41,5232.67 1918.60,5236.70 1918.13,5239.48 1917.82,5242.29 1917.46,5246.39"/>
        <lane id=":10280110276_0_2" index="2" disallow="tram rail_urban rail rail_electric rail_fast ship container cable_car subway aircraft wheelchair scooter drone" speed="13.89" length="13.87" shape="1916.28,5232.02 1915.44,5236.16 1914.97,5239.02 1914.64,5241.90 1914.27,5246.11"/>
    </edge>
    <edge id=":10280110276_3" function="internal">
        <lane id=":10280110276_3_0" index="0" disallow="tram rail_urban rail rail_electric rail_fast ship container cable_car subway aircraft wheelchair scooter drone" speed="7.89" length="11.94" shape="1916.28,5232.02 1915.17,5235.69 1913.61,5238.29 1911.57,5239.81 1909.08,5240.26"/>
    </edge>
    <edge id=":10280110276_4" function="internal">
        <lane id=":10280110276_4_0" index="0" disallow="tram rail_urban rail rail_electric rail_fast ship container cable_car subway aircraft wheelchair scooter drone" speed="7.90" length="14.41" shape="1909.18,5237.07 1913.10,5237.75 1915.79,5239.54 1917.24,5242.42 1917.46,5246.39"/>
        <lane id=":10280110276_4_1" index="1" disallow="tram rail_urban rail rail_electric rail_fast ship container cable_car subway aircraft wheelchair scooter drone" speed="7.22" length="11.83" shape="1909.18,5237.07 1911.70,5237.70 1913.39,5239.42 1914.25,5242.22 1914.27,5246.11"/>
    </edge>
    <edge id=":10280110276_6" function="internal">
        <lane id=":10280110276_6_0" index="0" disallow="tram rail_urban rail rail_electric rail_fast ship container cable_car subway aircraft wheelchair scooter drone" speed="3.65" length="4.67" shape="1909.18,5237.07 1910.35,5237.90 1910.73,5238.72 1910.30,5239.50 1909.08,5240.26"/>
    </edge>
    <edge id=":1038117353_0" function="internal">
        <lane id=":1038117353_0_0" index="0" disallow="tram rail_urban rail rail_electric rail_fast ship container cable_car subway aircraft wheelchair scooter drone" speed="27.78" length="14.46" shape="1284.77,5164.49 1280.99,5167.12 1278.14,5169.12 1275.81,5171.06 1273.56,5173.53"/>
    </edge>
    <edge id=":1038117353_1" function="internal">
        <lane id=":1038117353_1_0" index="0" disallow="tram rail_urban rail rail_electric rail_fast ship container cable_car subway aircraft wheelchair scooter drone" speed="10.35" length="15.75" shape="1276.07,5158.83 1277.17,5162.52 1277.12,5166.21 1275.92,5169.87 1273.56,5173.53"/>
    </edge>
    <edge id=":10629942344_0" function="internal">
        <lane id=":10629942344_0_0" index="0" allow="pedestrian delivery bicycle" speed="5.52" length="5.57" shape="2017.26,5147.58 2015.59,5147.49 2014.27,5147.82 2013.31,5148.57 2012.71,5149.75"/>
    </edge>
    <edge id=":10629942344_1" function="internal">
        <lane id=":10629942344_1_0" index="0" allow="pedestrian delivery bicycle" speed="3.65" length="4.67" shape="2017.26,5147.58 2016.21,5146.60 2015.94,5145.75 2016.47,5145.02 2017.78,5144.43"/>
    </edge>
    <edge id=":10629942344_2" function="internal">
        <lane id=":10629942344_2_0" index="0" allow="pedestrian delivery bicycle" speed="4.91" length="5.17" shape="2015.46,5140.70 2015.25,5142.13 2015.56,5143.23 2016.40,5143.99 2017.78,5144.43"/>
    </edge>
    <edge id=":10629942344_3" function="internal">
        <lane id=":10629942344_3_0" index="0" disallow="tram rail_urban rail rail_electric rail_fast ship container cable_car subway aircraft wheelchair scooter drone" speed="16.67" length="9.46" shape="2015.46,5140.70 2012.71,5149.75"/>
        <lane id=":10629942344_3_1" index="1" disallow="tram rail_urban rail rail_electric rail_fast ship container cable_car subway aircraft wheelchair scooter drone" speed="16.67" length="9.46" shape="2012.40,5139.77 2009.65,5148.82"/>
    </edge>
    <edge id=":10629942346_0" function="internal">
        <lane id=":10629942346_0_0" index="0" allow="pedestrian delivery bicycle" speed="3.65" length="4.67" shape="2086.39,5154.62 2087.47,5155.57 2087.76,5156.42 2087.25,5157.15 2085.96,5157.79"/>
    </edge>
    <edge id=":10629942347_0" function="internal">
        <lane id=":10629942347_0_0" index="0" allow="pedestrian delivery bicycle" speed="3.65" length="4.67" shape="2046.44,5089.17 2046.96,5087.82 2047.65,5087.25 2048.52,5087.46 2049.56,5088.45"/>
    </edge>
    <edge id=":10629942353_0" function="internal">
        <lane id=":10629942353_0_0" index="0" allow="pedestrian delivery bicycle" speed="6.26" length="6.38" shape="2025.10,5124.14 2023.04,5124.30 2021.45,5124.79 2020.35,5125.59 2019.72,5126.72"/>
    </edge>
    <edge id=":10629942353_1" function="internal">
        <lane id=":10629942353_1_0" index="0" allow="pedestrian delivery bicycle" speed="3.65" length="4.67" shape="2025.10,5124.14 2023.90,5123.34 2023.50,5122.54 2023.89,5121.74 2025.09,5120.94"/>
    </edge>
    <edge id=":10629942353_2" function="internal">
        <lane id=":10629942353_2_0" index="0" allow="pedestrian delivery bicycle" speed="4.53" length="4.67" shape="2022.18,5118.43 2022.09,5119.53 2022.54,5120.32 2023.54,5120.78 2025.09,5120.94"/>
    </edge>
    <edge id=":10629942353_3" function="internal">
        <lane id=":10629942353_3_0" index="0" disallow="tram rail_urban rail rail_electric rail_fast ship container cable_car subway aircraft wheelchair scooter drone" speed="16.67" length="8.63" shape="2022.18,5118.43 2019.72,5126.72"/>
        <lane id=":10629942353_3_1" index="1" disallow="tram rail_urban rail rail_electric rail_fast ship container cable_car subway aircraft wheelchair scooter drone" speed="16.67" length="8.63" shape="2019.11,5117.53 2016.66,5125.79"/>
    </edge>
    <edge id=":10629942358_0" function="internal">
        <lane id=":10629942358_0_0" index="0" allow="pedestrian delivery bicycle" speed="3.65" length="4.67" shape="1604.01,5368.29 1603.00,5367.26 1602.78,5366.39 1603.34,5365.69 1604.69,5365.17"/>
    </edge>
    <edge id=":10865813005_0" function="internal">
        <lane id=":10865813005_0_0" index="0" allow="rail" speed="44.44" length="3.00" shape="1799.22,4741.18 1796.64,4739.65"/>
    </edge>
    <edge id=":10865813005_1" function="internal">
        <lane id=":10865813005_1_0" index="0" allow="rail" speed="44.44" length="3.00" shape="1799.22,4741.18 1796.71,4739.54"/>
    </edge>
    <edge id=":10865813005_2" function="internal">
        <lane id=":10865813005_2_0" index="0" allow="rail rail_electric rail_fast" speed="44.44" length="3.00" shape="1799.22,4741.18 1796.64,4739.65"/>
    </edge>
    <edge id=":10865813005_3" function="internal">
        <lane id=":10865813005_3_0" index="0" allow="rail" speed="44.44" length="3.00" shape="1799.22,4741.18 1796.71,4739.54"/>
    </edge>
    <edge id=":10865813006_0" function="internal">
        <lane id=":10865813006_0_0" index="0" allow="rail rail_electric rail_fast" speed="44.44" length="2.91" shape="1758.88,4712.93 1756.61,4711.12"/>
    </edge>
    <edge id=":10865813006_1" function="internal">
        <lane id=":10865813006_1_0" index="0" allow="rail" speed="44.44" length="2.91" shape="1758.88,4712.93 1756.68,4711.04"/>
    </edge>
    <edge id=":10865813006_2" function="internal">
        <lane id=":10865813006_2_0" index="0" allow="rail" speed="44.44" length="2.90" shape="1758.93,4712.87 1756.61,4711.12"/>
    </edge>
    <edge id=":10865813006_3" function="internal">
        <lane id=":10865813006_3_0" index="0" allow="rail" speed="44.44" length="2.90" shape="1758.93,4712.87 1758.23,4712.37 1757.76,4712.01 1757.32,4711.62 1756.68,4711.04"/>
    </edge>
    <edge id=":10865813007_0" function="internal">
        <lane id=":10865813007_0_0" index="0" allow="rail rail_electric rail_fast" speed="44.44" length="33.52" shape="1735.82,4691.99 1713.88,4666.65"/>
    </edge>
    <edge id=":10865813007_1" function="internal">
        <lane id=":10865813007_1_0" index="0" allow="rail" speed="44.44" length="33.59" shape="1735.82,4691.99 1731.74,4686.76 1725.92,4678.46 1720.20,4670.07 1716.45,4664.56"/>
    </edge>
    <edge id=":10865813007_2" function="internal">
        <lane id=":10865813007_2_0" index="0" allow="rail" speed="44.44" length="33.52" shape="1735.90,4691.92 1731.35,4687.09 1724.70,4679.47 1718.14,4671.76 1713.88,4666.65"/>
    </edge>
    <edge id=":10865813007_3" function="internal">
        <lane id=":10865813007_3_0" index="0" allow="rail" speed="44.44" length="33.59" shape="1735.90,4691.92 1731.71,4686.79 1725.87,4678.51 1720.18,4670.09 1716.45,4664.56"/>
    </edge>
    <edge id=":11306994427_0" function="internal">
        <lane id=":11306994427_0_0" index="0" disallow="tram rail_urban rail rail_electric rail_fast ship container cable_car subway aircraft wheelchair scooter drone" speed="13.89" length="3.72" shape="619.80,5473.47 619.33,5472.47 618.96,5471.81 618.49,5471.22 617.73,5470.42"/>
    </edge>
    <edge id=":11306994427_1" function="internal">
        <lane id=":11306994427_1_0" index="0" disallow="tram rail_urban rail rail_electric rail_fast ship container cable_car subway aircraft wheelchair scooter drone" speed="4.45" length="1.85" shape="619.80,5473.47 619.22,5471.71"/>
    </edge>
    <edge id=":11306994427_4" function="internal">
        <lane id=":11306994427_4_0" index="0" disallow="tram rail_urban rail rail_electric rail_fast ship container cable_car subway aircraft wheelchair scooter drone" speed="4.45" length="4.27" shape="619.22,5471.71 619.50,5470.78 620.66,5470.68 622.68,5471.41"/>
    </edge>
    <edge id=":11306994427_2" function="internal">
        <lane id=":11306994427_2_0" index="0" disallow="tram rail_urban rail rail_electric rail_fast ship container cable_car subway aircraft wheelchair scooter drone" speed="13.89" length="4.26" shape="620.02,5468.18 620.78,5469.19 621.18,5470.03 621.67,5470.74 622.68,5471.41"/>
    </edge>
    <edge id=":11306994427_3" function="internal">
        <lane id=":11306994427_3_0" index="0" disallow="tram rail_urban rail rail_electric rail_fast ship container cable_car subway aircraft wheelchair scooter drone" speed="3.65" length="1.44" shape="620.02,5468.18 620.28,5469.60"/>
    </edge>
    <edge id=":11306994427_5" function="internal">
        <lane id=":11306994427_5_0" index="0" disallow="tram rail_urban rail rail_electric rail_fast ship container cable_car subway aircraft wheelchair scooter drone" speed="3.65" length="3.23" shape="620.28,5469.60 619.99,5470.45 619.14,5470.72 617.73,5470.42"/>
    </edge>
    <edge id=":11920406189_0" function="internal">
        <lane id=":11920406189_0_0" index="0" disallow="tram rail_urban rail rail_electric rail_fast ship container cable_car subway aircraft wheelchair scooter drone" speed="7.76" length="8.39" shape="1672.62,4930.83 1674.16,4932.77 1675.08,4934.68 1675.38,4936.56 1675.06,4938.42"/>
    </edge>
    <edge id=":11920406194_0" function="internal">
        <lane id=":11920406194_0_0" index="0" disallow="tram rail_urban rail rail_electric rail_fast ship container cable_car subway aircraft wheelchair scooter drone" speed="13.89" length="5.31" shape="1732.17,4994.69 1736.81,4992.11"/>
    </edge>
    <edge id=":11959057985_0" function="internal">
        <lane id=":11959057985_0_0" index="0" allow="pedestrian delivery bicycle" speed="5.56" length="3.26" shape="1963.29,5494.42 1960.61,5492.57"/>
    </edge>
    <edge id=":11959057985_1" function="internal">
        <lane id=":11959057985_1_0" index="0" allow="pedestrian delivery bicycle" speed="3.66" length="4.70" shape="1963.29,5494.42 1962.08,5493.62 1961.68,5492.82 1962.07,5492.01 1963.27,5491.20"/>
    </edge>
    <edge id=":11959057989_0" function="internal">
        <lane id=":11959057989_0_0" index="0" allow="pedestrian delivery bicycle" speed="5.56" length="2.27" shape="1886.20,5488.24 1885.52,5488.27 1885.06,5488.31 1884.60,5488.34 1883.93,5488.30"/>
    </edge>
    <edge id=":11959057993_0" function="internal">
        <lane id=":11959057993_0_0" index="0" allow="pedestrian delivery bicycle" speed="3.65" length="4.67" shape="1973.90,5362.56 1974.62,5361.31 1975.39,5360.85 1976.21,5361.19 1977.10,5362.33"/>
    </edge>
    <edge id=":11959057999_0" function="internal">
        <lane id=":11959057999_0_0" index="0" allow="pedestrian delivery bicycle" speed="3.65" length="4.67" shape="2043.51,5499.50 2044.63,5500.41 2044.95,5501.25 2044.47,5502.01 2043.20,5502.69"/>
    </edge>
    <edge id=":12113875519_0" function="internal">
        <lane id=":12113875519_0_0" index="0" allow="pedestrian delivery bicycle" speed="5.02" length="5.02" shape="2022.33,5274.29 2020.95,5274.36 2019.94,5274.86 2019.28,5275.78 2018.99,5277.13"/>
    </edge>
    <edge id=":12113875519_1" function="internal">
        <lane id=":12113875519_1_0" index="0" allow="pedestrian delivery bicycle" speed="5.56" length="10.17" shape="2022.33,5274.29 2019.60,5273.65 2017.71,5272.31 2016.67,5270.27 2016.46,5267.53"/>
    </edge>
    <edge id=":12113875519_2" function="internal">
        <lane id=":12113875519_2_0" index="0" allow="pedestrian delivery bicycle" speed="3.65" length="4.67" shape="2022.33,5274.29 2021.21,5273.38 2020.88,5272.55 2021.35,5271.79 2022.62,5271.10"/>
    </edge>
    <edge id=":12113875519_3" function="internal">
        <lane id=":12113875519_3_0" index="0" allow="pedestrian delivery bicycle" speed="5.11" length="5.08" shape="2019.66,5267.75 2019.76,5269.11 2020.29,5270.12 2021.24,5270.78 2022.62,5271.10"/>
    </edge>
    <edge id=":12113875519_4" function="internal">
        <lane id=":12113875519_4_0" index="0" allow="pedestrian delivery bicycle" speed="5.56" length="9.40" shape="2019.66,5267.75 2018.99,5277.13"/>
    </edge>
    <edge id=":12113875519_5" function="internal">
        <lane id=":12113875519_5_0" index="0" allow="pedestrian delivery bicycle" speed="3.65" length="4.67" shape="2019.66,5267.75 2018.77,5268.89 2017.95,5269.23 2017.18,5268.78 2016.46,5267.53"/>
    </edge>
    <edge id=":12113875519_6" function="internal">
        <lane id=":12113875519_6_0" index="0" allow="pedestrian delivery bicycle" speed="5.56" length="9.40" shape="2015.80,5276.91 2016.46,5267.53"/>
    </edge>
    <edge id=":12113875519_7" function="internal">
        <lane id=":12113875519_7_0" index="0" allow="pedestrian delivery bicycle" speed="5.56" length="10.26" shape="2015.80,5276.91 2016.40,5274.15 2017.73,5272.26 2019.81,5271.25 2022.62,5271.10"/>
    </edge>
    <edge id=":12113875519_8" function="internal">
        <lane id=":12113875519_8_0" index="0" allow="pedestrian delivery bicycle" speed="3.65" length="4.67" shape="2015.80,5276.91 2016.68,5275.76 2017.51,5275.42 2018.28,5275.88 2018.99,5277.13"/>
    </edge>
    <edge id=":12113875521_0" function="internal">
        <lane id=":12113875521_0_0" index="0" allow="pedestrian delivery bicycle" speed="3.65" length="4.67" shape="2031.01,5338.39 2030.07,5339.49 2029.23,5339.79 2028.48,5339.29 2027.84,5338.00"/>
    </edge>
    <edge id=":12113875522_0" function="internal">
        <lane id=":12113875522_0_0" index="0" allow="pedestrian delivery bicycle" speed="5.56" length="9.70" shape="2032.75,5321.95 2031.85,5331.62"/>
    </edge>
    <edge id=":12113875522_1" function="internal">
        <lane id=":12113875522_1_0" index="0" allow="pedestrian delivery bicycle" speed="5.56" length="10.33" shape="2032.75,5321.95 2032.18,5324.66 2030.84,5326.55 2028.73,5327.62 2025.85,5327.86"/>
    </edge>
    <edge id=":12113875522_2" function="internal">
        <lane id=":12113875522_2_0" index="0" allow="pedestrian delivery bicycle" speed="3.65" length="4.67" shape="2032.75,5321.95 2031.88,5323.10 2031.05,5323.45 2030.28,5323.01 2029.55,5321.76"/>
    </edge>
    <edge id=":12113875522_3" function="internal">
        <lane id=":12113875522_3_0" index="0" allow="pedestrian delivery bicycle" speed="5.14" length="5.21" shape="2026.02,5324.67 2027.49,5324.55 2028.58,5324.03 2029.26,5323.10 2029.55,5321.76"/>
    </edge>
    <edge id=":12113875522_4" function="internal">
        <lane id=":12113875522_4_0" index="0" allow="pedestrian delivery bicycle" speed="5.56" length="10.52" shape="2026.02,5324.67 2028.88,5325.23 2030.80,5326.58 2031.79,5328.70 2031.85,5331.62"/>
    </edge>
    <edge id=":12113875522_5" function="internal">