<?xml version="1.0" encoding="UTF-8"?>

<!-- generated on 2025-04-16 17:03:49 by Eclipse SUMO duarouter Version 1.22.0
<duarouterConfiguration xmlns:xsi="http://www.w3.org/2001/XMLSchema-instance" xsi:noNamespaceSchemaLocation="http://sumo.dlr.de/xsd/duarouterConfiguration.xsd">

    <input>
        <net-file value="C:\Users\FADEL\Documents\GitHub\TrafficSimulation\public\fadel\osm.net.xml"/>
        <route-files value="C:\Users\FADEL\Documents\GitHub\TrafficSimulation\public\fadel\osm.passenger.trips.xml"/>
    </input>

    <output>
        <output-file value="C:\Users\FADEL\Documents\GitHub\TrafficSimulation\public\fadel\osm.passenger.trips.xml.tmp"/>
        <write-trips value="true"/>
    </output>

    <time>
        <begin value="0"/>
        <end value="3600"/>
    </time>

    <report>
        <no-warnings value="true"/>
        <ignore-errors value="true"/>
        <no-step-log value="true"/>
    </report>

</duarouterConfiguration>
-->

<routes xmlns:xsi="http://www.w3.org/2001/XMLSchema-instance" xsi:noNamespaceSchemaLocation="http://sumo.dlr.de/xsd/routes_file.xsd">
    <vType id="veh_passenger" vClass="passenger"/>
    <trip id="veh1" type="veh_passenger" depart="3.71" departLane="best" from="1051330672#2" to="-299683322#0"/>
    <trip id="veh2" type="veh_passenger" depart="7.42" departLane="best" from="28960507" to="26250646#1"/>
    <trip id="veh4" type="veh_passenger" depart="14.85" departLane="best" from="26019107#9" to="-26020392#11"/>
    <trip id="veh5" type="veh_passenger" depart="18.56" departLane="best" departSpeed="max" from="-29081755" to="26020319"/>
    <trip id="veh6" type="veh_passenger" depart="22.27" departLane="best" from="-213662347" to="-29082015#2"/>
    <trip id="veh7" type="veh_passenger" depart="25.99" departLane="best" departSpeed="max" from="26250671#0" to="26020392#7"/>
    <trip id="veh8" type="veh_passenger" depart="29.70" departLane="best" departSpeed="max" from="-29081776" to="26021076#5"/>
    <trip id="veh9" type="veh_passenger" depart="33.41" departLane="best" from="29081536#1" to="-133338636#0"/>
    <trip id="veh12" type="veh_passenger" depart="44.55" departLane="best" departSpeed="max" from="-26023267#1" to="-268729630#0"/>
    <trip id="veh13" type="veh_passenger" depart="48.26" departLane="best" from="29169994" to="26023099#0"/>
    <trip id="veh15" type="veh_passenger" depart="55.68" departLane="best" from="26020468#1" to="556024975"/>
    <trip id="veh16" type="veh_passenger" depart="59.40" departLane="best" departSpeed="max" from="26015512#0" to="26020468#1"/>
    <trip id="veh17" type="veh_passenger" depart="63.11" departLane="best" departSpeed="max" from="29082015#0" to="26023223"/>
    <trip id="veh18" type="veh_passenger" depart="66.82" departLane="best" departSpeed="max" from="295263725#0" to="26020855#1"/>
    <trip id="veh19" type="veh_passenger" depart="70.53" departLane="best" departSpeed="max" from="28919085#0" to="-26020486#0"/>
    <trip id="veh20" type="veh_passenger" depart="74.25" departLane="best" departSpeed="max" from="-29081832" to="133338130"/>
    <trip id="veh21" type="veh_passenger" depart="77.96" departLane="best" departSpeed="max" from="-26020917#1" to="-682006396"/>
    <trip id="veh22" type="veh_passenger" depart="81.67" departLane="best" from="-26023300#2" to="1323775602"/>
    <trip id="veh26" type="veh_passenger" depart="96.52" departLane="best" departSpeed="max" from="26250671#0" to="26023107#1"/>
    <trip id="veh28" type="veh_passenger" depart="103.95" departLane="best" departSpeed="max" from="767735762" to="26023292#2"/>
    <trip id="veh29" type="veh_passenger" depart="107.66" departLane="best" from="26020675#1" to="26250669#2"/>
    <trip id="veh30" type="veh_passenger" depart="111.37" departLane="best" from="29169773#2" to="28961049"/>
    <trip id="veh31" type="veh_passenger" depart="115.08" departLane="best" departSpeed="max" from="-29081832" to="-26020392#14"/>
    <trip id="veh32" type="veh_passenger" depart="118.79" departLane="best" departSpeed="max" from="133369475" to="1306001426#1"/>
    <trip id="veh33" type="veh_passenger" depart="122.51" departLane="best" from="-29081532#0" to="555390982#0"/>
    <trip id="veh35" type="veh_passenger" depart="129.93" departLane="best" departSpeed="max" from="26250674" to="26018633#3"/>
    <trip id="veh36" type="veh_passenger" depart="133.64" departLane="best" from="375850535" to="26020237#3"/>
    <trip id="veh38" type="veh_passenger" depart="141.07" departLane="best" from="26019107#10" to="-297182837#4"/>
    <trip id="veh40" type="veh_passenger" depart="148.49" departLane="best" from="29081348#7" to="26019107#5"/>
    <trip id="veh41" type="veh_passenger" depart="152.21" departLane="best" from="-26020486#1" to="26015459#2"/>
    <trip id="veh42" type="veh_passenger" depart="155.92" departLane="best" from="819334565#0" to="26020341#8"/>
    <trip id="veh43" type="veh_passenger" depart="159.63" departLane="best" departSpeed="max" from="682006396" to="29082015#2"/>
    <trip id="veh44" type="veh_passenger" depart="163.34" departLane="best" from="267207987#2" to="26020392#14"/>
    <trip id="veh46" type="veh_passenger" depart="170.77" departLane="best" departSpeed="max" from="-26023319" to="26019878#1"/>
    <trip id="veh48" type="veh_passenger" depart="178.19" departLane="best" from="297182837#3" to="1060895818"/>
    <trip id="veh49" type="veh_passenger" depart="181.90" departLane="best" from="26020327#1" to="-29081571#1"/>
    <trip id="veh50" type="veh_passenger" depart="185.62" departLane="best" from="375850534#1" to="29169740"/>
    <trip id="veh51" type="veh_passenger" depart="189.33" departLane="best" departSpeed="max" from="1317046063" to="26023292#1"/>
    <trip id="veh52" type="veh_passenger" depart="193.04" departLane="best" departSpeed="max" from="26023288" to="-29081215#7"/>
    <trip id="veh53" type="veh_passenger" depart="196.75" departLane="best" from="29081215#7" to="26020341#8"/>
    <trip id="veh54" type="veh_passenger" depart="200.47" departLane="best" from="-1060895816#0" to="213662357"/>
    <trip id="veh55" type="veh_passenger" depart="204.18" departLane="best" departSpeed="max" from="-152464674#3" to="375850534#1"/>
    <trip id="veh56" type="veh_passenger" depart="207.89" departLane="best" from="297182837#5" to="29081360#0"/>
    <trip id="veh58" type="veh_passenger" depart="215.32" departLane="best" from="-26020486#5" to="28960808#1"/>
    <trip id="veh59" type="veh_passenger" depart="219.03" departLane="best" from="29081094#5" to="-28961362"/>
    <trip id="veh60" type="veh_passenger" depart="222.74" departLane="best" from="26020312#1" to="26020464#3"/>
    <trip id="veh62" type="veh_passenger" depart="230.16" departLane="best" from="26019107#9" to="-292873080"/>
    <trip id="veh66" type="veh_passenger" depart="245.01" departLane="best" from="26020227#3" to="26020341#5"/>
    <trip id="veh69" type="veh_passenger" depart="256.15" departLane="best" from="-29081856" to="-297182837#6"/>
    <trip id="veh70" type="veh_passenger" depart="259.86" departLane="best" from="-26020486#7" to="26023290#2"/>
    <trip id="veh71" type="veh_passenger" depart="263.58" departLane="best" departSpeed="max" from="-29081832" to="297186835#1"/>
    <trip id="veh72" type="veh_passenger" depart="267.29" departLane="best" departSpeed="max" from="295263725#0" to="-26023149"/>
    <trip id="veh74" type="veh_passenger" depart="274.71" departLane="best" from="-29081571#0" to="-28961382"/>
    <trip id="veh75" type="veh_passenger" depart="278.42" departLane="best" from="26020304#0" to="28961354"/>
    <trip id="veh76" type="veh_passenger" depart="282.14" departLane="best" departSpeed="max" from="29081532#0" to="-29081826#3"/>
    <trip id="veh77" type="veh_passenger" depart="285.85" departLane="best" departSpeed="max" from="-26023292#2" to="26019107#9"/>
    <trip id="veh79" type="veh_passenger" depart="293.27" departLane="best" from="26019107#11" to="231933515#0"/>
    <trip id="veh80" type="veh_passenger" depart="296.99" departLane="best" departSpeed="max" from="295263725#0" to="-767735762"/>
    <trip id="veh81" type="veh_passenger" depart="300.70" departLane="best" from="-29081215#4" to="26020232"/>
    <trip id="veh82" type="veh_passenger" depart="304.41" departLane="best" from="26019107#9" to="1324257026"/>
    <trip id="veh84" type="veh_passenger" depart="311.84" departLane="best" from="26020237#2" to="29082412#1"/>
    <trip id="veh85" type="veh_passenger" depart="315.55" departLane="best" from="98633267#1" to="29081391"/>
    <trip id="veh86" type="veh_passenger" depart="319.26" departLane="best" departSpeed="max" from="682006396" to="375850533"/>
    <trip id="veh88" type="veh_passenger" depart="326.69" departLane="best" departSpeed="max" from="26020314#0" to="-292873080"/>
    <trip id="veh89" type="veh_passenger" depart="330.40" departLane="best" from="26019107#10" to="-26020842#0"/>
    <trip id="veh90" type="veh_passenger" depart="334.11" departLane="best" departSpeed="max" from="26015512#0" to="767692766#3"/>
    <trip id="veh93" type="veh_passenger" depart="345.25" departLane="best" departSpeed="max" from="682006396" to="26020856#2"/>
    <trip id="veh94" type="veh_passenger" depart="348.96" departLane="best" from="26020486#2" to="28960017#1"/>
    <trip id="veh95" type="veh_passenger" depart="352.67" departLane="best" from="-26020392#8" to="26021076#1"/>
    <trip id="veh97" type="veh_passenger" depart="360.10" departLane="best" departSpeed="max" from="-26020917#1" to="-29081826#0"/>
    <trip id="veh98" type="veh_passenger" depart="363.81" departLane="best" from="26023128#0" to="26250637#0"/>
    <trip id="veh100" type="veh_passenger" depart="371.23" departLane="best" from="26019107#7" to="26021076#1"/>
    <trip id="veh101" type="veh_passenger" depart="374.95" departLane="best" from="26020392#16" to="498403530#0"/>
    <trip id="veh102" type="veh_passenger" depart="378.66" departLane="best" from="-29081348#3" to="275606987"/>
    <trip id="veh103" type="veh_passenger" depart="382.37" departLane="best" departSpeed="max" from="267207987#0" to="152464674#1"/>
    <trip id="veh104" type="veh_passenger" depart="386.08" departLane="best" departSpeed="max" from="133369475" to="28960482#3"/>
    <trip id="veh105" type="veh_passenger" depart="389.79" departLane="best" from="-26020842#1" to="26020237#3"/>
    <trip id="veh106" type="veh_passenger" depart="393.51" departLane="best" from="98633267#0" to="819334565#0"/>
    <trip id="veh109" type="veh_passenger" depart="404.64" departLane="best" from="26015459#1" to="-29081326#0"/>
    <trip id="veh111" type="veh_passenger" depart="412.07" departLane="best" from="26023290#3" to="767695730"/>
    <trip id="veh112" type="veh_passenger" depart="415.78" departLane="best" from="26250671#1" to="-133364646#0"/>
    <trip id="veh113" type="veh_passenger" depart="419.49" departLane="best" departSpeed="max" from="29081734" to="152464674#0"/>
    <trip id="veh115" type="veh_passenger" depart="426.92" departLane="best" from="-98633267#2" to="26023099#1"/>
    <trip id="veh117" type="veh_passenger" depart="434.34" departLane="best" departSpeed="max" from="26020314#0" to="297186835#1"/>
    <trip id="veh118" type="veh_passenger" depart="438.06" departLane="best" from="29169773#4" to="-26262365"/>
    <trip id="veh119" type="veh_passenger" depart="441.77" departLane="best" from="26019878#0" to="1323775602"/>
    <trip id="veh120" type="veh_passenger" depart="445.48" departLane="best" departSpeed="max" from="-1317046062" to="28961026#2"/>
    <trip id="veh122" type="veh_passenger" depart="452.90" departLane="best" from="28960902#5" to="26020468#1"/>
    <trip id="veh123" type="veh_passenger" depart="456.62" departLane="best" from="26020117#1" to="-133364646#0"/>
    <trip id="veh124" type="veh_passenger" depart="460.33" departLane="best" departSpeed="max" from="-26020855#1" to="292873084#1"/>
    <trip id="veh125" type="veh_passenger" depart="464.04" departLane="best" departSpeed="max" from="332620253" to="26020392#8"/>
    <trip id="veh126" type="veh_passenger" depart="467.75" departLane="best" departSpeed="max" from="29082412#0" to="26020917#1"/>
    <trip id="veh128" type="veh_passenger" depart="475.18" departLane="best" from="29081360#3" to="29082015#2"/>
    <trip id="veh129" type="veh_passenger" depart="478.89" departLane="best" departSpeed="max" from="299683322#0" to="-29170408#1"/>
    <trip id="veh131" type="veh_passenger" depart="486.32" departLane="best" from="29081235#0" to="292873084#1"/>
    <trip id="veh132" type="veh_passenger" depart="490.03" departLane="best" from="26019107#13" to="26023264"/>
    <trip id="veh135" type="veh_passenger" depart="501.16" departLane="best" from="29081550" to="292873084#1"/>
    <trip id="veh136" type="veh_passenger" depart="504.88" departLane="best" from="213669214#0" to="375850535"/>
    <trip id="veh137" type="veh_passenger" depart="508.59" departLane="best" departSpeed="max" from="29081520" to="29082593"/>
    <trip id="veh138" type="veh_passenger" depart="512.30" departLane="best" from="29081550" to="1306001426#1"/>
    <trip id="veh139" type="veh_passenger" depart="516.01" departLane="best" from="29081348#0" to="-275608209"/>
    <trip id="veh142" type="veh_passenger" depart="527.15" departLane="best" from="29081360#2" to="-332620253"/>
    <trip id="veh144" type="veh_passenger" depart="534.58" departLane="best" from="208737725#0" to="29169740"/>
    <trip id="veh146" type="veh_passenger" depart="542.00" departLane="best" from="26250637#0" to="26018633#6"/>
    <trip id="veh149" type="veh_passenger" depart="553.14" departLane="best" departSpeed="max" from="-26023319" to="26019878#1"/>
    <trip id="veh151" type="veh_passenger" depart="560.56" departLane="best" departSpeed="max" from="26023288" to="26020341#2"/>
    <trip id="veh156" type="veh_passenger" depart="579.12" departLane="best" from="26015389#0" to="-26023135#1"/>
    <trip id="veh158" type="veh_passenger" depart="586.55" departLane="best" departSpeed="max" from="133369475" to="29081755"/>
    <trip id="veh159" type="veh_passenger" depart="590.26" departLane="best" from="28959753#1" to="152464674#1"/>
    <trip id="veh160" type="veh_passenger" depart="593.97" departLane="best" departSpeed="max" from="133364646#0" to="26019107#10"/>
    <trip id="veh161" type="veh_passenger" depart="597.69" departLane="best" from="26019107#11" to="133364624#6"/>
    <trip id="veh163" type="veh_passenger" depart="605.11" departLane="best" from="555463897#2" to="26250669#0"/>
    <trip id="veh164" type="veh_passenger" depart="608.82" departLane="best" departSpeed="max" from="332620253" to="26023203#0"/>
    <trip id="veh166" type="veh_passenger" depart="616.25" departLane="best" departSpeed="max" from="26250674" to="26020237#6"/>
    <trip id="veh167" type="veh_passenger" depart="619.96" departLane="best" from="26020237#1" to="-292873080"/>
    <trip id="veh168" type="veh_passenger" depart="623.67" departLane="best" from="-26023111#1" to="26020341#4"/>
    <trip id="veh170" type="veh_passenger" depart="631.10" departLane="best" from="29081737" to="28960482#2"/>
    <trip id="veh172" type="veh_passenger" depart="638.52" departLane="best" from="-29081333#0" to="-25966399"/>
    <trip id="veh173" type="veh_passenger" depart="642.23" departLane="best" from="-297182837#4" to="26020266#1"/>
    <trip id="veh175" type="veh_passenger" depart="649.66" departLane="best" from="26019107#5" to="26023290#0"/>
    <trip id="veh177" type="veh_passenger" depart="657.08" departLane="best" from="26020314#3" to="-767692766#1"/>
    <trip id="veh178" type="veh_passenger" depart="660.80" departLane="best" departSpeed="max" from="26250674" to="-133338635"/>
    <trip id="veh179" type="veh_passenger" depart="664.51" departLane="best" departSpeed="max" from="-26023313#1" to="26019107#6"/>
    <trip id="veh181" type="veh_passenger" depart="671.93" departLane="best" from="26020392#1" to="-26020486#4"/>
    <trip id="veh183" type="veh_passenger" depart="679.36" departLane="best" from="26020237#8" to="29081094#2"/>
    <trip id="veh185" type="veh_passenger" depart="686.78" departLane="best" from="26023128#1" to="555463897#2"/>
    <trip id="veh186" type="veh_passenger" depart="690.49" departLane="best" departSpeed="max" from="29082015#0" to="26020464#0"/>
    <trip id="veh189" type="veh_passenger" depart="701.63" departLane="best" from="-297182837#7" to="26023291#1"/>
    <trip id="veh190" type="veh_passenger" depart="705.34" departLane="best" from="29081094#5" to="26020341#7"/>
    <trip id="veh193" type="veh_passenger" depart="716.48" departLane="best" from="-98633267#1" to="170400058#1"/>
    <trip id="veh194" type="veh_passenger" depart="720.19" departLane="best" from="26020486#0" to="-28961690"/>
    <trip id="veh195" type="veh_passenger" depart="723.90" departLane="best" from="-29082015#2" to="26250672"/>
    <trip id="veh196" type="veh_passenger" depart="727.62" departLane="best" from="28919085#1" to="-26020918#1"/>
    <trip id="veh197" type="veh_passenger" depart="731.33" departLane="best" from="26019107#2" to="26020392#3"/>
    <trip id="veh199" type="veh_passenger" depart="738.75" departLane="best" from="26019107#8" to="297186835#1"/>
    <trip id="veh201" type="veh_passenger" depart="746.18" departLane="best" from="292873084#0" to="28960902#6"/>
    <trip id="veh202" type="veh_passenger" depart="749.89" departLane="best" from="26015512#2" to="-133338635"/>
    <trip id="veh205" type="veh_passenger" depart="761.03" departLane="best" from="26019107#7" to="28960017#1"/>
    <trip id="veh206" type="veh_passenger" depart="764.74" departLane="best" departSpeed="max" from="-29081776" to="-297182837#4"/>
    <trip id="veh207" type="veh_passenger" depart="768.45" departLane="best" from="26020227#2" to="-26020392#1"/>
    <trip id="veh208" type="veh_passenger" depart="772.17" departLane="best" from="213669217#0" to="26250669#1"/>
    <trip id="veh209" type="veh_passenger" depart="775.88" departLane="best" from="26019107#12" to="-29081348#4"/>
    <trip id="veh210" type="veh_passenger" depart="779.59" departLane="best" from="26020266#5" to="-28961362"/>
    <trip id="veh211" type="veh_passenger" depart="783.30" departLane="best" from="26023308" to="-26015418"/>
    <trip id="veh212" type="veh_passenger" depart="787.01" departLane="best" from="26018887#1" to="26020486#6"/>
    <trip id="veh214" type="veh_passenger" depart="794.44" departLane="best" from="-28960017#1" to="26020237#5"/>
    <trip id="veh215" type="veh_passenger" depart="798.15" departLane="best" from="-26020392#16" to="26015418"/>
    <trip id="veh216" type="veh_passenger" depart="801.86" departLane="best" from="-29081536#0" to="213669214#0"/>
    <trip id="veh217" type="veh_passenger" depart="805.58" departLane="best" from="29023552#0" to="26015418"/>
    <trip id="veh220" type="veh_passenger" depart="816.71" departLane="best" departSpeed="max" from="-152464674#3" to="26020392#17"/>
    <trip id="veh221" type="veh_passenger" depart="820.43" departLane="best" from="98633267#2" to="231933515#1"/>
    <trip id="veh222" type="veh_passenger" depart="824.14" departLane="best" departSpeed="max" from="26250671#0" to="28961238"/>
    <trip id="veh223" type="veh_passenger" depart="827.85" departLane="best" departSpeed="max" from="26250671#0" to="28960672"/>
    <trip id="veh224" type="veh_passenger" depart="831.56" departLane="best" from="555943607#4" to="-29082412#0"/>
    <trip id="veh229" type="veh_passenger" depart="850.12" departLane="best" departSpeed="max" from="29081826#0" to="556017182#1"/>
    <trip id="veh230" type="veh_passenger" depart="853.84" departLane="best" departSpeed="max" from="-26023313#1" to="-26015389#0"/>
    <trip id="veh231" type="veh_passenger" depart="857.55" departLane="best" from="133364646#1" to="26250669#0"/>
    <trip id="veh232" type="veh_passenger" depart="861.26" departLane="best" from="556018431#1" to="26018633#4"/>
    <trip id="veh233" type="veh_passenger" depart="864.97" departLane="best" from="28959374#0" to="-26023292#0"/>
    <trip id="veh235" type="veh_passenger" depart="872.40" departLane="best" departSpeed="max" from="-26023300#3" to="28961026#2"/>
    <trip id="veh237" type="veh_passenger" depart="879.82" departLane="best" departSpeed="max" from="-28919374" to="767692766#3"/>
    <trip id="veh238" type="veh_passenger" depart="883.54" departLane="best" from="29081295#2" to="231933515#1"/>
    <trip id="veh243" type="veh_passenger" depart="902.10" departLane="best" departSpeed="max" from="28919292#0" to="26020117#0"/>
    <trip id="veh245" type="veh_passenger" depart="909.52" departLane="best" from="-819334565#1" to="29081200#2"/>
    <trip id="veh246" type="veh_passenger" depart="913.23" departLane="best" from="26020468#3" to="26020266#8"/>
    <trip id="veh249" type="veh_passenger" depart="924.37" departLane="best" departSpeed="max" from="29082015#0" to="-26023366#0"/>
    <trip id="veh250" type="veh_passenger" depart="928.08" departLane="best" from="297182837#7" to="-767692766#1"/>
    <trip id="veh251" type="veh_passenger" depart="931.80" departLane="best" departSpeed="max" from="26015512#0" to="-26020392#1"/>
    <trip id="veh253" type="veh_passenger" depart="939.22" departLane="best" from="-29081536#1" to="28961635#0"/>
    <trip id="veh255" type="veh_passenger" depart="946.64" departLane="best" departSpeed="max" from="275608209" to="1323775602"/>
    <trip id="veh258" type="veh_passenger" depart="957.78" departLane="best" departSpeed="max" from="26020314#0" to="28960808#1"/>
    <trip id="veh259" type="veh_passenger" depart="961.49" departLane="best" from="268729630#1" to="26023313#0"/>
    <trip id="veh260" type="veh_passenger" depart="965.21" departLane="best" departSpeed="max" from="26020314#0" to="28961538#2"/>
    <trip id="veh262" type="veh_passenger" depart="972.63" departLane="best" from="26021980#4" to="26020266#0"/>
    <trip id="veh263" type="veh_passenger" depart="976.34" departLane="best" from="26020464#0" to="26019107#6"/>
    <trip id="veh265" type="veh_passenger" depart="983.77" departLane="best" departSpeed="max" from="275608209" to="1317046062"/>
    <trip id="veh266" type="veh_passenger" depart="987.48" departLane="best" from="-375850535" to="-28960902#4"/>
    <trip id="veh267" type="veh_passenger" depart="991.19" departLane="best" from="-29081215#7" to="-28960902#2"/>
    <trip id="veh268" type="veh_passenger" depart="994.91" departLane="best" from="26020468#1" to="28960902#0"/>
    <trip id="veh269" type="veh_passenger" depart="998.62" departLane="best" from="-29081204#1" to="-293305762#2"/>
    <trip id="veh271" type="veh_passenger" depart="1006.04" departLane="best" departSpeed="max" from="767692763#0" to="26020341#8"/>
    <trip id="veh273" type="veh_passenger" depart="1013.47" departLane="best" from="-29081235#0" to="-332620253"/>
    <trip id="veh276" type="veh_passenger" depart="1024.60" departLane="best" departSpeed="max" from="275606986#0" to="-28961362"/>
    <trip id="veh277" type="veh_passenger" depart="1028.32" departLane="best" departSpeed="max" from="295263725#0" to="26020312#3"/>
    <trip id="veh278" type="veh_passenger" depart="1032.03" departLane="best" from="26020266#6" to="26020227#0"/>
    <trip id="veh279" type="veh_passenger" depart="1035.74" departLane="best" from="-29081200#2" to="-26020486#5"/>
    <trip id="veh280" type="veh_passenger" depart="1039.45" departLane="best" from="555463898" to="26020266#3"/>
    <trip id="veh281" type="veh_passenger" depart="1043.17" departLane="best" departSpeed="max" from="29081826#0" to="26018878#0"/>
    <trip id="veh282" type="veh_passenger" depart="1046.88" departLane="best" departSpeed="max" from="-26020855#1" to="26023290#0"/>
    <trip id="veh283" type="veh_passenger" depart="1050.59" departLane="best" from="-26020392#20" to="-29081215#1"/>
    <trip id="veh284" type="veh_passenger" depart="1054.30" departLane="best" from="26020856#2" to="152464674#3"/>
    <trip id="veh286" type="veh_passenger" depart="1061.73" departLane="best" from="29081094#3" to="26023099#3"/>
    <trip id="veh287" type="veh_passenger" depart="1065.44" departLane="best" from="29081348#4" to="-332620253"/>
    <trip id="veh288" type="veh_passenger" depart="1069.15" departLane="best" from="26020392#16" to="26020232"/>
    <trip id="veh289" type="veh_passenger" depart="1072.86" departLane="best" from="26020237#1" to="29082015#1"/>
    <trip id="veh291" type="veh_passenger" depart="1080.29" departLane="best" from="26023300#3" to="26023107#1"/>
    <trip id="veh292" type="veh_passenger" depart="1084.00" departLane="best" from="28960902#4" to="555390982#2"/>
    <trip id="veh293" type="veh_passenger" depart="1087.71" departLane="best" from="-29081489#0" to="-292873080"/>
    <trip id="veh294" type="veh_passenger" depart="1091.43" departLane="best" departSpeed="max" from="26250674" to="-29081295#2"/>
    <trip id="veh296" type="veh_passenger" depart="1098.85" departLane="best" from="26023111#0" to="133338636#1"/>
    <trip id="veh298" type="veh_passenger" depart="1106.28" departLane="best" departSpeed="max" from="28919085#0" to="26020237#1"/>
    <trip id="veh300" type="veh_passenger" depart="1113.70" departLane="best" departSpeed="max" from="26250674" to="468802308#1"/>
    <trip id="veh301" type="veh_passenger" depart="1117.41" departLane="best" from="26019878#1" to="26020392#6"/>
    <trip id="veh302" type="veh_passenger" depart="1121.12" departLane="best" departSpeed="max" from="26250671#0" to="297192314#0"/>
    <trip id="veh303" type="veh_passenger" depart="1124.84" departLane="best" departSpeed="max" from="29081833" to="-26023187"/>
    <trip id="veh308" type="veh_passenger" depart="1143.40" departLane="best" from="555463898" to="26020314#3"/>
    <trip id="veh309" type="veh_passenger" depart="1147.11" departLane="best" from="-26015418" to="26019107#9"/>
    <trip id="veh310" type="veh_passenger" depart="1150.82" departLane="best" departSpeed="max" from="-26023264" to="555963378"/>
    <trip id="veh311" type="veh_passenger" depart="1154.54" departLane="best" departSpeed="max" from="29082412#0" to="26020855#1"/>
    <trip id="veh312" type="veh_passenger" depart="1158.25" departLane="best" from="555943607#4" to="98633267#2"/>
    <trip id="veh313" type="veh_passenger" depart="1161.96" departLane="best" departSpeed="max" from="267207987#0" to="1317046062"/>
    <trip id="veh314" type="veh_passenger" depart="1165.67" departLane="best" from="-26015418" to="28960672"/>
    <trip id="veh315" type="veh_passenger" depart="1169.38" departLane="best" from="26020266#7" to="26023318#4"/>
    <trip id="veh316" type="veh_passenger" depart="1173.10" departLane="best" from="468802308#0" to="-29081734"/>
    <trip id="veh317" type="veh_passenger" depart="1176.81" departLane="best" from="26022704#1" to="26023290#6"/>
    <trip id="veh318" type="veh_passenger" depart="1180.52" departLane="best" from="26020314#1" to="-26250646#1"/>
    <trip id="veh320" type="veh_passenger" depart="1187.95" departLane="best" departSpeed="max" from="267207987#0" to="29081832"/>
    <trip id="veh323" type="veh_passenger" depart="1199.08" departLane="best" from="29081618" to="26020464#3"/>
    <trip id="veh326" type="veh_passenger" depart="1210.22" departLane="best" from="26019107#12" to="26020341#4"/>
    <trip id="veh327" type="veh_passenger" depart="1213.93" departLane="best" departSpeed="max" from="767735762" to="26023390"/>
    <trip id="veh328" type="veh_passenger" depart="1217.65" departLane="best" from="26020486#2" to="26019107#12"/>
    <trip id="veh332" type="veh_passenger" depart="1232.49" departLane="best" from="26020486#7" to="375850534#0"/>
    <trip id="veh334" type="veh_passenger" depart="1239.92" departLane="best" departSpeed="max" from="-28919374" to="556024975"/>
    <trip id="veh335" type="veh_passenger" depart="1243.63" departLane="best" departSpeed="max" from="26023288" to="-767692763#0"/>
    <trip id="veh338" type="veh_passenger" depart="1254.77" departLane="best" from="767735764#2" to="297192314#3"/>
    <trip id="veh339" type="veh_passenger" depart="1258.48" departLane="best" from="26020266#0" to="-28960808#0"/>
    <trip id="veh340" type="veh_passenger" depart="1262.19" departLane="best" from="29082015#1" to="26020314#2"/>
    <trip id="veh342" type="veh_passenger" depart="1269.62" departLane="best" from="26020492#1" to="26015471#0"/>
    <trip id="veh343" type="veh_passenger" depart="1273.33" departLane="best" from="50999963#1" to="26020341#0"/>
    <trip id="veh344" type="veh_passenger" depart="1277.04" departLane="best" from="297182837#6" to="29082593"/>
    <trip id="veh348" type="veh_passenger" depart="1291.89" departLane="best" from="26022872#2" to="98633267#1"/>
    <trip id="veh349" type="veh_passenger" depart="1295.60" departLane="best" departSpeed="max" from="26020314#0" to="-29081215#1"/>
    <trip id="veh350" type="veh_passenger" depart="1299.32" departLane="best" from="26020475" to="231933515#1"/>
    <trip id="veh351" type="veh_passenger" depart="1303.03" departLane="best" from="26020492#1" to="26020392#4"/>
    <trip id="veh352" type="veh_passenger" depart="1306.74" departLane="best" from="26020237#8" to="208737725#0"/>
    <trip id="veh354" type="veh_passenger" depart="1314.17" departLane="best" from="26021076#4" to="-767692757#0"/>
    <trip id="veh357" type="veh_passenger" depart="1325.30" departLane="best" from="29081571#0" to="26015471#1"/>
    <trip id="veh360" type="veh_passenger" depart="1336.44" departLane="best" departSpeed="max" from="-26015389#1" to="26020314#4"/>
    <trip id="veh361" type="veh_passenger" depart="1340.15" departLane="best" from="26023099#4" to="29169740"/>
    <trip id="veh362" type="veh_passenger" depart="1343.86" departLane="best" from="26020392#20" to="26020237#2"/>
    <trip id="veh363" type="veh_passenger" depart="1347.58" departLane="best" from="28959753#5" to="26019107#11"/>