<?xml version="1.0" encoding="UTF-8"?>

<!-- generated on 2025-04-16 17:03:46 by Eclipse SUMO polyconvert Version 1.22.0
<polyconvertConfiguration xmlns:xsi="http://www.w3.org/2001/XMLSchema-instance" xsi:noNamespaceSchemaLocation="http://sumo.dlr.de/xsd/polyconvertConfiguration.xsd">

    <input>
        <net-file value="osm.net.xml"/>
        <osm-files value="osm_bbox.osm.xml"/>
        <osm.keep-full-type value="true"/>
        <type-file value="C:\Program%20Files%20(x86)\Eclipse\Sumo\data\typemap\osmPolyconvert.typ.xml"/>
    </input>

    <output>
        <output-file value="osm.poly.xml"/>
    </output>

    <report>
        <verbose value="true"/>
    </report>

</polyconvertConfiguration>
-->

<additional xmlns:xsi="http://www.w3.org/2001/XMLSchema-instance" xsi:noNamespaceSchemaLocation="http://sumo.dlr.de/xsd/additional_file.xsd">
    <location netOffset="-503500.30,-4064647.38" convBoundary="-55.66,0.00,188223.53,733558.33" origBoundary="3.038602,36.727489,5.364165,43.312259" projParameter="+proj=utm +zone=31 +ellps=WGS84 +datum=WGS84 +units=m +no_defs"/>

    <poly id="1006667495" type="natural.wood" color="140,196,107" fill="1" layer="-4.00" shape="1653.087114,5328.337009 1681.611762,5335.597940 1674.393283,5363.758464 1645.859799,5356.497552 1653.087114,5328.337009"/>
    <poly id="1124100832" type="amenity.restaurant" color="237,199,199" fill="1" layer="-1.00" shape="1781.245470,5247.836403 1765.612861,5244.831664 1768.112408,5228.925974 1783.290578,5230.887702 1781.245470,5247.836403"/>
    <poly id="1124100832#1" type="building.commercial" color="255,230,230" fill="1" layer="-1.00" shape="1781.245470,5247.836403 1765.612861,5244.831664 1768.112408,5228.925974 1783.290578,5230.887702 1781.245470,5247.836403"/>
    <poly id="1124100833" type="building.commercial" color="255,230,230" fill="1" layer="-1.00" shape="1781.245470,5247.836403 1783.290578,5230.887702 1803.064128,5233.440234 1800.661928,5250.555102 1781.245470,5247.836403"/>
    <poly id="1124100833#1" type="shop.stationery" color="237,199,255" fill="1" layer="-1.00" shape="1781.245470,5247.836403 1783.290578,5230.887702 1803.064128,5233.440234 1800.661928,5250.555102 1781.245470,5247.836403"/>
    <poly id="1124100834" type="amenity.fast_food" color="237,199,199" fill="1" layer="-1.00" shape="1779.380472,5262.156196 1781.245470,5247.836403 1800.661928,5250.555102 1798.645166,5264.919169 1779.380472,5262.156196"/>
    <poly id="1124100834#1" type="building.commercial" color="255,230,230" fill="1" layer="-1.00" shape="1779.380472,5262.156196 1781.245470,5247.836403 1800.661928,5250.555102 1798.645166,5264.919169 1779.380472,5262.156196"/>
    <poly id="1124100835" type="building.commercial" color="255,230,230" fill="1" layer="-1.00" shape="1771.469080,5197.867899 1770.286952,5204.644937 1763.666092,5203.642492 1762.394398,5210.963028 1773.913816,5212.955765 1773.526003,5219.577992 1753.056607,5216.614663 1758.040268,5195.341531 1771.469080,5197.867899"/>
    <poly id="1124100835#1" type="shop.shoes" color="237,199,255" fill="1" layer="-1.00" shape="1771.469080,5197.867899 1770.286952,5204.644937 1763.666092,5203.642492 1762.394398,5210.963028 1773.913816,5212.955765 1773.526003,5219.577992 1753.056607,5216.614663 1758.040268,5195.341531 1771.469080,5197.867899"/>
    <poly id="1124100836" type="amenity.fast_food" color="237,199,199" fill="1" layer="-1.00" shape="1758.040268,5195.341531 1771.469080,5197.867899 1773.324101,5185.256407 1760.769219,5183.684564 1758.040268,5195.341531"/>
    <poly id="1124100836#1" type="building.commercial" color="255,230,230" fill="1" layer="-1.00" shape="1758.040268,5195.341531 1771.469080,5197.867899 1773.324101,5185.256407 1760.769219,5183.684564 1758.040268,5195.341531"/>
    <poly id="1124100837" type="amenity.cafe" color="237,199,199" fill="1" layer="-1.00" shape="1760.769219,5183.684564 1773.324101,5185.256407 1776.911204,5185.713432 1778.712555,5173.323767 1763.605529,5171.595042 1760.769219,5183.684564"/>
    <poly id="1124100837#1" type="building.commercial" color="255,230,230" fill="1" layer="-1.00" shape="1760.769219,5183.684564 1773.324101,5185.256407 1776.911204,5185.713432 1778.712555,5173.323767 1763.605529,5171.595042 1760.769219,5183.684564"/>
    <poly id="1124100838" type="building.commercial" color="255,230,230" fill="1" layer="-1.00" shape="1731.594005,5319.943037 1738.134309,5321.200545 1742.010589,5301.135848 1746.989439,5302.092896 1748.305412,5295.282658 1736.795151,5293.079196 1731.594005,5319.943037"/>
    <poly id="1124100838#1" type="shop.sports" color="237,199,255" fill="1" layer="-1.00" shape="1731.594005,5319.943037 1738.134309,5321.200545 1742.010589,5301.135848 1746.989439,5302.092896 1748.305412,5295.282658 1736.795151,5293.079196 1731.594005,5319.943037"/>
    <poly id="1124468588" type="building.apartments" color="255,230,230" fill="1" layer="-1.00" shape="1338.879952,4484.560102 1336.895394,4474.630836 1324.002814,4484.329829 1331.111157,4492.365103 1338.879952,4484.560102"/>
    <poly id="1172844910" type="building.yes" color="255,230,230" fill="1" layer="-1.00" shape="566.737384,5303.390547 575.334214,5315.197500 566.951971,5321.250232 558.364059,5309.443292 566.737384,5303.390547"/>
    <poly id="1172845347" type="building.yes" color="255,230,230" fill="1" layer="-1.00" shape="588.236649,5075.463773 592.285850,5080.213475 553.959934,5112.630850 549.919646,5107.892263 588.236649,5075.463773"/>
    <poly id="1172845473" type="building.yes" color="255,230,230" fill="1" layer="-1.00" shape="623.583790,5612.743629 625.804043,5616.205690 622.822715,5618.101139 620.602461,5614.639078 623.583790,5612.743629"/>
    <poly id="1172845476" type="building.yes" color="255,230,230" fill="1" layer="-1.00" shape="575.027500,5471.729403 579.838766,5487.317241 569.994680,5490.329815 565.192321,5474.741987 575.027500,5471.729403"/>
    <poly id="1172845515" type="building.yes" color="255,230,230" fill="1" layer="-1.00" shape="604.283616,5369.034158 605.964430,5362.445778 610.104504,5363.490503 608.432610,5370.078887 604.283616,5369.034158"/>
    <poly id="1172845519" type="building.yes" color="255,230,230" fill="1" layer="-1.00" shape="606.923051,5614.321886 609.850457,5613.214003 611.971570,5618.728202 604.563798,5621.553331 602.959588,5617.392718 595.132339,5620.384047 590.497955,5608.323828 602.814500,5603.637435 606.923051,5614.321886"/>
    <poly id="1172845557" type="building.yes" color="255,230,230" fill="1" layer="-1.00" shape="587.504055,5375.504369 584.995244,5378.154374 577.511663,5371.128986 580.020475,5368.478979 587.504055,5375.504369"/>
    <poly id="1172845594" type="building.yes" color="255,230,230" fill="1" layer="-1.00" shape="581.390693,5376.899152 570.104735,5390.482580 561.800089,5383.645393 568.862731,5375.151587 560.477789,5368.247806 567.469011,5359.842708 572.580257,5364.060449 571.642734,5365.191479 577.521106,5370.041885 575.708568,5372.215230 581.390693,5376.899152"/>
    <poly id="1172845617" type="building.yes" color="255,230,230" fill="1" layer="-1.00" shape="585.655036,5379.319445 587.673536,5375.648658 593.757874,5378.957260 591.739373,5382.628046 585.655036,5379.319445"/>
    <poly id="1172845668" type="building.yes" color="255,230,230" fill="1" layer="-1.00" shape="591.161446,5359.598889 598.725317,5366.668699 593.350540,5372.378969 585.786670,5365.309164 591.161446,5359.598889"/>
    <poly id="1172845721" type="building.yes" color="255,230,230" fill="1" layer="-1.00" shape="602.596154,5352.316333 606.052493,5346.327824 614.331378,5351.068481 610.875035,5357.056987 602.596154,5352.316333"/>
    <poly id="1172845722" type="building.yes" color="255,230,230" fill="1" layer="-1.00" shape="599.628775,5529.435412 609.026145,5527.476483 611.474500,5539.114127 602.077142,5541.073053 599.628775,5529.435412"/>
    <poly id="1172845769" type="building.yes" color="255,230,230" fill="1" layer="-1.00" shape="604.543107,5571.779420 609.532499,5569.308100 612.162381,5574.567407 607.172992,5577.038725 604.543107,5571.779420"/>
    <poly id="1172845776" type="building.yes" color="255,230,230" fill="1" layer="-1.00" shape="574.641466,5626.198024 568.903633,5626.406053 568.612787,5618.796176 574.350631,5618.577053 574.641466,5626.198024"/>
    <poly id="1172845780" type="building.yes" color="255,230,230" fill="1" layer="-1.00" shape="597.241164,5372.558322 601.204445,5370.097598 604.967340,5376.100670 601.004060,5378.561392 597.241164,5372.558322"/>
    <poly id="1172845830" type="building.yes" color="255,230,230" fill="1" layer="-1.00" shape="620.028912,5601.227469 620.805355,5601.005985 619.299852,5595.713939 630.589513,5592.524634 634.304283,5605.527326 622.229266,5608.949198 620.028912,5601.227469"/>
    <poly id="1172845921" type="building.yes" color="255,230,230" fill="1" layer="-1.00" shape="619.672954,5543.710544 623.087460,5550.301382 618.356855,5552.728447 614.942347,5546.137611 619.672954,5543.710544"/>
    <poly id="1172845928" type="amenity.restaurant" color="237,199,199" fill="1" layer="-1.00" shape="615.718494,5620.593617 619.702501,5630.434953 603.949704,5636.750328 599.974606,5626.909004 615.718494,5620.593617"/>
    <poly id="1172845928#1" type="building.yes" color="255,230,230" fill="1" layer="-1.00" shape="615.718494,5620.593617 619.702501,5630.434953 603.949704,5636.750328 599.974606,5626.909004 615.718494,5620.593617"/>
    <poly id="1172845954" type="building.yes" color="255,230,230" fill="1" layer="-1.00" shape="585.674541,5581.010767 590.621755,5592.050584 581.339430,5596.172706 576.392206,5585.132894 585.674541,5581.010767"/>
    <poly id="1172846027" type="building.yes" color="255,230,230" fill="1" layer="-1.00" shape="571.870957,5541.568869 582.642670,5539.299965 585.269150,5551.725283 574.506381,5553.983095 571.870957,5541.568869"/>
    <poly id="1172846062" type="building.yes" color="255,230,230" fill="1" layer="-1.00" shape="592.510488,5468.043825 593.678238,5470.617940 588.706752,5472.856326 583.500895,5461.372672 593.247515,5456.995639 597.285612,5465.905183 592.510488,5468.043825"/>
    <poly id="1172846084" type="building.yes" color="255,230,230" fill="1" layer="-1.00" shape="627.584387,5588.252409 615.071160,5593.626432 611.291836,5584.894489 623.805068,5579.531553 627.584387,5588.252409"/>
    <poly id="1172846099" type="building.yes" color="255,230,230" fill="1" layer="-1.00" shape="614.777354,5573.725605 617.222792,5572.861536 614.852360,5566.215739 611.764325,5567.301357 609.910748,5562.108981 616.702652,5559.705091 618.591876,5564.986229 625.080329,5562.693128 630.186553,5576.983268 617.539890,5581.458697 614.777354,5573.725605"/>
    <poly id="1172846133" type="building.yes" color="255,230,230" fill="1" layer="-1.00" shape="608.758639,5508.518568 610.541727,5511.869486 607.560521,5513.443245 611.625966,5521.066032 602.851948,5525.698649 597.003395,5514.747136 608.758639,5508.518568"/>
    <poly id="1172846180" type="building.yes" color="255,230,230" fill="1" layer="-1.00" shape="588.753312,5375.615897 591.021814,5371.656814 596.329936,5374.676630 594.070356,5378.635715 588.753312,5375.615897"/>
    <poly id="1172846203" type="building.yes" color="255,230,230" fill="1" layer="-1.00" shape="594.289197,5387.499055 599.844366,5377.773239 613.422452,5385.444969 610.948524,5389.770012 613.303720,5391.102296 610.213540,5396.514148 594.289197,5387.499055"/>
    <poly id="1172846242" type="building.yes" color="255,230,230" fill="1" layer="-1.00" shape="608.077049,5552.690216 593.885801,5558.839967 589.723119,5549.298068 603.914375,5543.159403 608.077049,5552.690216"/>
    <poly id="1172846279" type="building.yes" color="255,230,230" fill="1" layer="-1.00" shape="593.017040,5360.697976 596.375534,5354.032748 604.984806,5358.329838 601.626308,5364.995063 593.017040,5360.697976"/>
    <poly id="1172846285" type="building.yes" color="255,230,230" fill="1" layer="-1.00" shape="565.618421,5329.480535 575.483212,5320.866047 590.377697,5337.767668 580.512905,5346.393232 565.618421,5329.480535"/>
    <poly id="1172846580" type="building.yes" color="255,230,230" fill="1" layer="-1.00" shape="748.635845,4878.166038 747.670143,4881.970422 740.362161,4880.147555 741.327865,4876.332077 748.635845,4878.166038"/>
    <poly id="1172846581" type="building.yes" color="255,230,230" fill="1" layer="-1.00" shape="938.404703,4970.744074 938.668470,4978.353942 929.244499,4978.670744 928.980723,4971.060876 938.404703,4970.744074"/>
    <poly id="1172846582" type="building.yes" color="255,230,230" fill="1" layer="-1.00" shape="757.109879,4724.888563 760.864447,4712.155788 766.816109,4713.900344 763.061538,4726.622024 757.109879,4724.888563"/>
    <poly id="1172846583" type="building.yes" color="255,230,230" fill="1" layer="-1.00" shape="1230.806601,4784.817597 1218.222249,4786.885009 1216.763541,4778.065347 1229.338981,4775.997929 1230.806601,4784.817597"/>
    <poly id="1172846584" type="building.yes" color="255,230,230" fill="1" layer="-1.00" shape="1218.309967,4854.263340 1228.590385,4854.712741 1228.310180,4861.135377 1218.038694,4860.685980 1218.309967,4854.263340"/>
    <poly id="1172846585" type="building.yes" color="255,230,230" fill="1" layer="-1.00" shape="781.847672,4974.968196 786.050983,4974.815003 786.323926,4982.191921 773.508753,4982.651401 773.147806,4972.778536 781.750759,4972.472244 781.847672,4974.968196"/>
    <poly id="1172846586" type="building.yes" color="255,230,230" fill="1" layer="-1.00" shape="1118.028988,4953.035199 1117.613910,4961.487767 1115.463262,4961.386768 1115.246716,4965.768348 1105.600047,4965.297239 1106.231660,4952.451997 1118.028988,4953.035199"/>
    <poly id="1172846587" type="building.yes" color="255,230,230" fill="1" layer="-1.00" shape="929.531269,4941.942291 932.437749,4947.290578 916.887648,4955.668756 913.883088,4950.142937 911.294381,4951.539306 906.078736,4941.952345 917.745781,4935.668696 919.644801,4939.175036 923.161878,4937.279970 926.567642,4943.538132 929.531269,4941.942291"/>
    <poly id="1172846588" type="building.yes" color="255,230,230" fill="1" layer="-1.00" shape="1054.228823,5157.365528 1061.039596,5153.885990 1065.470177,5162.463174 1058.659403,5165.953802 1054.228823,5157.365528"/>
    <poly id="1172846589" type="building.yes" color="255,230,230" fill="1" layer="-1.00" shape="753.499499,4860.275609 755.663893,4850.758978 770.235454,4854.049749 768.071045,4863.566377 753.499499,4860.275609"/>
    <poly id="1172846590" type="building.yes" color="255,230,230" fill="1" layer="-1.00" shape="1238.498227,4738.520095 1239.906272,4758.199681 1227.045864,4759.113265 1227.125526,4760.300249 1201.404728,4762.116382 1200.288882,4746.463685 1204.813679,4746.144482 1204.362065,4739.743630 1211.742760,4739.215239 1211.353095,4733.768411 1220.161741,4733.140979 1220.489452,4737.644877 1230.967002,4736.907450 1231.117536,4739.037370 1238.498227,4738.520095"/>
    <poly id="1172846591" type="building.yes" color="255,230,230" fill="1" layer="-1.00" shape="901.381916,4895.326455 917.929757,4890.542865 921.974153,4904.388900 919.100152,4905.219380 920.195891,4908.947162 910.922334,4911.626850 907.911303,4901.308896 903.493198,4902.582301 901.381916,4895.326455"/>
    <poly id="1172846592" type="building.yes" color="255,230,230" fill="1" layer="-1.00" shape="844.009384,4911.293046 840.970884,4919.744293 833.119078,4916.944895 836.157571,4908.493645 844.009384,4911.293046"/>
    <poly id="1172846593" type="building.yes" color="255,230,230" fill="1" layer="-1.00" shape="827.050754,4934.402046 815.046547,4936.947340 813.978187,4931.932809 818.101567,4931.058553 816.730479,4924.679441 824.611319,4923.008400 827.050754,4934.402046"/>
    <poly id="1172846594" type="building.yes" color="255,230,230" fill="1" layer="-1.00" shape="927.803703,4728.214471 916.252893,4733.510897 910.975589,4722.104670 926.382636,4715.046464 930.331679,4723.601136 926.484381,4725.362913 927.803703,4728.214471"/>
    <poly id="1172846595" type="building.yes" color="255,230,230" fill="1" layer="-1.00" shape="1123.854792,4824.161013 1116.295122,4825.743208 1114.318998,4816.390825 1121.878676,4814.808627 1123.854792,4824.161013"/>
    <poly id="1172846596" type="building.yes" color="255,230,230" fill="1" layer="-1.00" shape="994.778721,5020.314464 1005.067974,5020.575023 1004.812947,5030.347737 994.523712,5030.076086 994.778721,5020.314464"/>
    <poly id="1172846597" type="building.yes" color="255,230,230" fill="1" layer="-1.00" shape="1159.323498,4800.740988 1167.926614,4800.479456 1168.154746,4807.612316 1159.542707,4807.884936 1159.323498,4800.740988"/>
    <poly id="1172846598" type="building.yes" color="255,230,230" fill="1" layer="-1.00" shape="974.888942,5153.030632 971.877897,5160.095236 967.818431,5158.384804 970.838403,5151.309110 974.888942,5153.030632"/>
    <poly id="1172846599" type="building.yes" color="255,230,230" fill="1" layer="-1.00" shape="784.734006,4824.960332 789.383401,4825.206709 789.158207,4829.366434 784.517738,4829.120061 784.734006,4824.960332"/>
    <poly id="1172846600" type="building.yes" color="255,230,230" fill="1" layer="-1.00" shape="754.785898,4768.060969 763.887934,4769.518678 762.509306,4778.114987 753.407278,4776.657280 754.785898,4768.060969"/>
    <poly id="1172846601" type="building.yes" color="255,230,230" fill="1" layer="-1.00" shape="812.885599,4974.895070 808.584152,4974.992735 808.522763,4972.851773 812.833142,4972.743020 812.885599,4974.895070"/>
    <poly id="1172846602" type="building.yes" color="255,230,230" fill="1" layer="-1.00" shape="1124.936617,4820.478755 1131.147743,4820.726164 1130.740482,4831.186550 1124.520433,4830.950229 1124.936617,4820.478755"/>
    <poly id="1172846603" type="building.yes" color="255,230,230" fill="1" layer="-1.00" shape="992.564232,5039.814625 992.345210,5032.060570 1004.303553,5031.722988 1004.522564,5039.477044 992.564232,5039.814625"/>
    <poly id="1172846604" type="building.yes" color="255,230,230" fill="1" layer="-1.00" shape="839.171626,4772.496211 849.603004,4774.653539 847.733298,4783.560186 837.301930,4781.402860 839.171626,4772.496211"/>
    <poly id="1172846605" type="building.yes" color="255,230,230" fill="1" layer="-1.00" shape="949.987358,4937.992758 945.209080,4945.455793 935.493941,4939.294181 940.272215,4931.831141 949.987358,4937.992758"/>
    <poly id="1172846606" type="building.yes" color="255,230,230" fill="1" layer="-1.00" shape="849.004863,4687.440862 858.963586,4706.625560 849.135311,4711.678912 839.185496,4692.494230 849.004863,4687.440862"/>
    <poly id="1172846607" type="building.yes" color="255,230,230" fill="1" layer="-1.00" shape="734.326779,4939.491586 736.845977,4934.245893 741.021471,4936.233595 738.511195,4941.479291 734.326779,4939.491586"/>
    <poly id="1172846608" type="building.yes" color="255,230,230" fill="1" layer="-1.00" shape="1183.849478,4894.456143 1203.915941,4885.415362 1213.176898,4905.787037 1212.177151,4906.230202 1214.334170,4910.979154 1220.609395,4908.153930 1224.201445,4916.065156 1203.233471,4925.515830 1195.095604,4907.596314 1190.721696,4909.568448 1183.849478,4894.456143"/>
    <poly id="1172846609" type="building.yes" color="255,230,230" fill="1" layer="-1.00" shape="833.599813,5007.185904 837.510277,5003.760182 855.722636,5024.380066 851.812173,5027.805780 833.599813,5007.185904"/>
    <poly id="1172846610" type="building.yes" color="255,230,230" fill="1" layer="-1.00" shape="957.643883,4545.374667 948.823688,4550.705752 942.876110,4540.963093 951.696317,4535.620909 957.643883,4545.374667"/>
    <poly id="1172846611" type="building.yes" color="255,230,230" fill="1" layer="-1.00" shape="1005.916378,4985.566265 1010.713198,4993.744267 1002.571982,4998.465548 997.775156,4990.287551 1005.916378,4985.566265"/>
    <poly id="1172846612" type="building.yes" color="255,230,230" fill="1" layer="-1.00" shape="735.054690,4695.315025 737.248886,4697.723272 733.115059,4701.459529 730.920863,4699.051283 735.054690,4695.315025"/>
    <poly id="1172846613" type="building.yes" color="255,230,230" fill="1" layer="-1.00" shape="799.058109,5089.444518 787.248862,5095.162521 782.265510,5084.932362 794.074763,5079.225446 799.058109,5089.444518"/>
    <poly id="1172846614" type="building.yes" color="255,230,230" fill="1" layer="-1.00" shape="816.007446,4960.353851 826.993247,4959.838043 827.452358,4969.588937 816.466570,4970.104744 816.007446,4960.353851"/>
    <poly id="1172846615" type="building.yes" color="255,230,230" fill="1" layer="-1.00" shape="735.467204,4763.281421 739.170880,4763.083586 739.666097,4772.235474 735.953506,4772.422211 735.467204,4763.281421"/>
    <poly id="1172846616" type="building.yes" color="255,230,230" fill="1" layer="-1.00" shape="875.370037,5187.533470 876.325588,5168.753668 886.266509,5169.257949 885.310937,5188.037749 875.370037,5187.533470"/>
    <poly id="1172846617" type="building.yes" color="255,230,230" fill="1" layer="-1.00" shape="986.001154,4843.433515 996.663282,4847.787539 992.686922,4857.469550 982.024798,4853.126624 986.001154,4843.433515"/>
    <poly id="1172846618" type="building.yes" color="255,230,230" fill="1" layer="-1.00" shape="872.190096,4879.725934 869.206754,4884.949164 875.086061,4888.291138 871.736512,4894.135382 860.611326,4887.817833 866.953134,4876.750358 872.190096,4879.725934"/>
    <poly id="1172846619" type="building.yes" color="255,230,230" fill="1" layer="-1.00" shape="847.658790,5105.232140 834.288916,5108.841631 830.316216,5094.307910 843.686117,5090.687320 847.658790,5105.232140"/>
    <poly id="1172846620" type="building.yes" color="255,230,230" fill="1" layer="-1.00" shape="863.457787,4801.150451 862.742890,4803.024786 868.399769,4805.157514 865.397171,4813.087403 852.611198,4808.277652 856.328681,4798.473423 863.457787,4801.150451"/>
    <poly id="1172846621" type="building.yes" color="255,230,230" fill="1" layer="-1.00" shape="1048.851612,4881.992405 1041.623574,4897.773758 1042.408710,4898.129149 1040.148278,4903.064288 1031.832985,4899.288285 1031.556024,4899.876062 1029.379058,4898.887639 1039.144468,4877.583359 1048.851612,4881.992405"/>
    <poly id="1172846622" type="building.yes" color="255,230,230" fill="1" layer="-1.00" shape="1205.989607,4830.905985 1207.912064,4840.291639 1198.951164,4842.105940 1197.028698,4832.720288 1205.989607,4830.905985"/>
    <poly id="1172846623" type="building.yes" color="255,230,230" fill="1" layer="-1.00" shape="945.630147,5165.184269 951.295637,5167.416895 947.569500,5176.799553 951.084774,5178.187997 948.627497,5184.365466 942.212565,5181.844037 940.988395,5184.927228 938.222569,5183.838686 945.630147,5165.184269"/>
    <poly id="1172846624" type="building.yes" color="255,230,230" fill="1" layer="-1.00" shape="1013.623916,4889.627818 1004.867335,4893.394782 1000.856333,4884.163372 1009.621845,4880.396410 1013.623916,4889.627818"/>
    <poly id="1172846625" type="building.yes" color="255,230,230" fill="1" layer="-1.00" shape="982.601424,4961.715347 982.748382,4970.767233 977.251105,4970.864186 977.095223,4961.801202 982.601424,4961.715347"/>
    <poly id="1172846626" type="building.yes" color="255,230,230" fill="1" layer="-1.00" shape="744.809359,4981.916050 752.082606,4981.631252 752.778718,4999.480080 745.505486,4999.764877 744.809359,4981.916050"/>
    <poly id="1172846627" type="building.yes" color="255,230,230" fill="1" layer="-1.00" shape="858.241490,5037.393328 855.242728,5037.979722 856.052707,5042.106695 849.367977,5043.401158 848.557995,5039.274185 843.943834,5040.170363 843.044846,5035.577443 857.342510,5032.800407 858.241490,5037.393328"/>
    <poly id="1172846628" type="building.yes" color="255,230,230" fill="1" layer="-1.00" shape="1158.695480,4725.020508 1148.375519,4698.547228 1146.135622,4698.335244 1143.782875,4692.299428 1144.114958,4688.838624 1142.189979,4683.901237 1142.746515,4677.966839 1137.550846,4664.630352 1137.712425,4662.899948 1136.170649,4658.950039 1136.475831,4655.722171 1144.917879,4656.514354 1152.510853,4675.997616 1152.394165,4677.228864 1155.499683,4677.530065 1158.369314,4684.897314 1156.798509,4701.480341 1162.161769,4701.982448 1171.608313,4726.236687 1158.695480,4725.020508"/>
    <poly id="1172846629" type="building.yes" color="255,230,230" fill="1" layer="-1.00" shape="993.808109,5084.153621 991.665809,5068.234175 1001.304368,5066.952472 1003.446650,5082.871921 993.808109,5084.153621"/>
    <poly id="1172846630" type="building.yes" color="255,230,230" fill="1" layer="-1.00" shape="841.456678,4999.868578 844.676810,5002.709999 840.989076,5006.856869 837.768945,5004.015450 841.456678,4999.868578"/>
    <poly id="1172846631" type="building.yes" color="255,230,230" fill="1" layer="-1.00" shape="962.834233,4962.403848 973.578226,4963.540945 973.129797,4967.789292 971.603868,4967.622099 967.487627,5006.034670 958.251767,5005.053669 962.834233,4962.403848"/>
    <poly id="1172846632" type="building.yes" color="255,230,230" fill="1" layer="-1.00" shape="983.354187,4904.731501 989.559926,4915.117717 981.248983,4920.038601 975.043237,4909.652391 983.354187,4904.731501"/>
    <poly id="1172846633" type="building.yes" color="255,230,230" fill="1" layer="-1.00" shape="767.851360,4731.704964 775.992522,4709.512145 781.274768,4711.433863 773.124669,4733.626672 767.851360,4731.704964"/>
    <poly id="1172846634" type="building.yes" color="255,230,230" fill="1" layer="-1.00" shape="754.644253,4765.764668 754.355355,4772.431357 751.490725,4772.307909 751.373406,4774.925775 743.966417,4774.611490 744.363699,4765.326930 754.644253,4765.764668"/>
    <poly id="1172846635" type="building.yes" color="255,230,230" fill="1" layer="-1.00" shape="1046.721468,4826.571135 1030.930052,4835.004441 1020.855586,4816.318657 1034.236799,4809.170829 1039.764371,4819.434699 1042.174601,4818.138111 1046.721468,4826.571135"/>
    <poly id="1172846636" type="building.yes" color="255,230,230" fill="1" layer="-1.00" shape="872.094314,5153.986843 871.857549,5180.687347 854.384732,5180.534213 854.318255,5188.399050 846.179749,5188.328347 846.227039,5183.081426 848.466912,5183.104752 848.628084,5164.513122 845.674297,5164.489433 845.768994,5153.762641 872.094314,5153.986843"/>
    <poly id="1172846637" type="building.yes" color="255,230,230" fill="1" layer="-1.00" shape="1100.698934,4802.961067 1106.678247,4802.831175 1107.000348,4817.840044 1101.021052,4817.958843 1100.698934,4802.961067"/>
    <poly id="1172846638" type="building.yes" color="255,230,230" fill="1" layer="-1.00" shape="975.066477,5137.800165 980.245586,5131.601946 983.073233,5133.944033 986.136052,5130.284982 993.914300,5136.734050 985.672368,5146.591310 975.066477,5137.800165"/>
    <poly id="1172846639" type="building.yes" color="255,230,230" fill="1" layer="-1.00" shape="805.624803,5198.280327 806.065111,5209.950287 800.237753,5210.158116 800.678067,5221.828076 790.638600,5222.200185 790.136697,5208.755329 790.939857,5208.722454 790.570023,5198.838488 805.624803,5198.280327"/>
    <poly id="1172846640" type="building.yes" color="255,230,230" fill="1" layer="-1.00" shape="1109.265533,4820.747606 1109.127735,4844.575084 1110.671615,4844.587010 1110.611825,4856.156874 1101.402090,4856.107536 1101.608574,4820.699106 1109.265533,4820.747606"/>
    <poly id="1172846641" type="building.yes" color="255,230,230" fill="1" layer="-1.00" shape="1031.858677,4615.387712 1036.589571,4613.615360 1034.094226,4607.024854 1050.955871,4600.710870 1055.923951,4606.038109 1054.057819,4607.767606 1063.476639,4617.867169 1059.887240,4621.193122 1062.545198,4624.045416 1065.227650,4631.157396 1055.209511,4640.414618 1031.858677,4615.387712"/>
    <poly id="1172846642" type="building.yes" color="255,230,230" fill="1" layer="-1.00" shape="1049.644440,4985.179010 1041.147812,4986.927167 1038.993710,4976.543064 1047.490348,4974.794905 1049.644440,4985.179010"/>
    <poly id="1172846643" type="building.yes" color="255,230,230" fill="1" layer="-1.00" shape="937.521499,4987.382970 928.535132,4987.089890 928.825028,4978.748177 937.811397,4979.052350 937.521499,4987.382970"/>
    <poly id="1172846644" type="building.yes" color="255,230,230" fill="1" layer="-1.00" shape="1090.664780,4643.062616 1084.862862,4645.022943 1081.378923,4634.760143 1087.171923,4632.799809 1090.664780,4643.062616"/>
    <poly id="1172846645" type="building.yes" color="255,230,230" fill="1" layer="-1.00" shape="735.481239,4752.976124 739.987792,4753.410983 739.709734,4756.239534 735.203183,4755.804676 735.481239,4752.976124"/>
    <poly id="1172846646" type="building.yes" color="255,230,230" fill="1" layer="-1.00" shape="1005.933075,4953.918221 1007.360975,4953.830231 1007.891782,4962.616090 1006.463884,4962.704080 1005.933075,4953.918221"/>
    <poly id="1172846647" type="building.yes" color="255,230,230" fill="1" layer="-1.00" shape="795.446049,4978.735518 787.422827,4979.718755 786.080778,4968.791572 797.165155,4967.432715 798.756064,4980.345654 795.686000,4980.721268 795.446049,4978.735518"/>
    <poly id="1172846648" type="building.yes" color="255,230,230" fill="1" layer="-1.00" shape="907.779473,5070.287027 919.364617,5066.732192 919.765518,5068.041362 928.646277,5065.317108 932.147523,5076.633687 927.854417,5077.951516 930.348946,5086.006259 922.262566,5088.486879 919.839312,5080.642940 911.752930,5083.123570 907.779473,5070.287027"/>
    <poly id="1172846649" type="building.yes" color="255,230,230" fill="1" layer="-1.00" shape="1139.912562,5229.116204 1136.217400,5230.423160 1133.954199,5224.076789 1137.649364,5222.769831 1139.912562,5229.116204"/>
    <poly id="1172846650" type="building.yes" color="255,230,230" fill="1" layer="-1.00" shape="930.949798,5028.722811 920.748312,5031.324357 918.049779,5020.806887 928.242354,5018.205333 930.949798,5028.722811"/>
    <poly id="1172846651" type="building.yes" color="255,230,230" fill="1" layer="-1.00" shape="803.116188,5182.593692 804.432818,5190.725457 793.009384,5192.561129 791.692742,5184.429367 803.116188,5182.593692"/>